STAAD SPACE
*******************************************************************************
START JOB INFORMATION
ENGINEER DATE 14/6/2022
ENGINEER NAME A
CHECKER NAME C
APPROVED NAME D
END JOB INFORMATION
*******************************************************************************
INPUT WIDTH 79
SET NL 1200
SET ITERLIM 150
*******************************************************************************
UNIT METER KN
JOINT COORDINATES
1 0.1865 0 0; 2 86.7965 0 0; 4 86.7965 9.5 0; 11 29.0115 10.948 0;
12 57.9715 10.953 0; 17 0.1865 4.5 0; 22 72.4515 10.2274 0; 27 0.1865 9.5 0;
29 14.5314 10.2239 0; 31 43.4915 11.672 0; 32 -4.6626 0 0; 33 -4.6626 4.5 0;
34 0.1865 0 7.21; 35 86.7965 0 7.21; 36 86.7965 9.5 7.21; 37 29.0115 0 7.21;
38 57.9715 0 7.21; 39 29.0115 10.948 7.21; 40 57.9715 10.953 7.21;
41 0.1865 4.5 7.21; 43 80.9623 9.817 7.21; 44 63.9417 10.654 7.21;
45 52.0008 11.2423 7.21; 46 72.4515 10.2274 7.21; 47 34.9822 11.2376 7.21;
48 23.0412 10.649 7.21; 49 0.1865 9.5 7.21; 50 6.02161 9.7988 7.21;
51 14.5314 10.2239 7.21; 52 43.4915 11.672 7.21; 53 -4.6626 0 7.21;
54 -4.6626 4.5 7.21; 55 0.1865 0 14.42; 56 86.7965 0 14.42;
57 86.7965 9.5 14.42; 58 29.0115 0 14.42; 59 57.9715 0 14.42;
60 29.0115 10.948 14.42; 61 57.9715 10.953 14.42; 62 0.1865 4.5 14.42;
64 80.9623 9.817 14.42; 65 63.9417 10.654 14.42; 66 52.0008 11.2423 14.42;
67 72.4515 10.2274 14.42; 68 34.9822 11.2376 14.42; 69 23.0412 10.649 14.42;
70 0.1865 9.5 14.42; 71 6.02161 9.7988 14.42; 72 14.5314 10.2239 14.42;
73 43.4915 11.672 14.42; 74 -4.6626 0 14.42; 75 -4.6626 4.5 14.42;
76 0.1865 0 21.63; 77 86.7965 0 21.63; 78 86.7965 9.5 21.63;
81 29.0115 10.948 21.63; 82 57.9715 10.953 21.63; 83 0.1865 4.5 21.63;
88 72.4515 10.2274 21.63; 91 0.1865 9.5 21.63; 93 14.5314 10.2239 21.63;
94 43.4915 11.672 21.63; 95 -4.6626 0 21.63; 96 -4.6626 4.5 21.63;
# ... 284 like lines cut
MEMBER INCIDENCES
1 1 17; 3 4 558; 4 2 4; 11 11 1190; 12 12 1216; 20 560 1182; 22 22 1177;
24 562 11; 28 27 632; 29 29 1194; 30 32 33; 31 33 17; 32 34 41; 33 36 43;
34 35 756; 35 37 39; 36 38 40; 37 39 47; 38 40 45; 39 50 633; 42 43 563;
43 44 40; 44 45 564; 45 46 565; 46 47 566; 47 48 39; 48 49 50; 49 51 567;
50 53 54; 51 54 41; 52 55 62; 53 57 64; 54 56 755; 55 58 60; 56 59 61;
57 60 68; 58 61 66; 59 71 634; 62 64 568; 63 65 61; 64 66 569; 65 67 570;
66 68 571; 67 69 60; 68 70 71; 69 72 572; 70 74 75; 71 75 62; 72 76 83;
73 78 573; 74 77 655; 77 81 576; 78 82 574; 80 83 643; 83 575 82; 85 88 575;
87 577 81; 88 91 635; 89 93 577; 90 95 96; 91 96 83; 92 97 104; 93 99 106;
94 98 668; 95 100 660; 96 101 664; 97 102 110; 98 103 108; 99 113 636;
100 104 656; 102 106 578; 103 107 103; 104 108 579; 105 109 580; 106 110 581;
107 111 102; 108 112 113; 109 114 582; 110 116 117; 111 117 104; 112 118 125;
113 120 127; 114 119 681; 115 121 673; 116 122 677; 117 123 131; 118 124 129;
119 134 637; 120 125 669; 122 127 583; 123 128 124; 124 129 584; 125 130 585;
126 131 586; 127 132 123; 128 133 134; 129 135 587; 130 137 138; 131 138 125;
132 139 146; 133 141 148; 134 140 694; 135 142 686; 136 143 690; 137 144 152;
138 145 150; 139 155 638; 140 146 682; 142 148 588; 143 149 145; 144 150 589;
145 151 590; 146 152 591; 147 153 144; 148 154 155; 149 156 592; 150 158 159;
151 159 146; 152 160 167; 153 162 169; 154 161 707; 155 163 699; 156 164 703;
157 165 173; 158 166 171; 159 176 639; 160 167 695; 162 169 593; 163 170 166;
# ... 261 like lines cut
ELEMENT INCIDENCES SHELL
1607 33 17 209 222; 1608 33 17 41 54; 1609 54 41 62 75; 1610 75 62 83 96;
1611 96 83 104 117; 1612 117 104 125 138; 1613 138 125 146 159;
1614 159 146 167 180; 1615 222 209 230 243; 1616 243 230 251 264;
1617 264 251 272 285; 1618 285 272 293 306; 1621 306 285 808 809;
1622 285 264 807 808; 1623 264 243 806 807; 1624 243 222 805 806;
1625 222 33 797 805; 1626 33 54 798 797; 1627 54 75 799 798;
1628 75 96 800 799; 1629 96 117 801 800; 1630 117 138 802 801;
1631 138 159 803 802; 1632 159 180 804 803; 1633 656 657 644 643;
1634 656 657 670 669; 1635 657 658 645 644; 1636 657 658 671 670;
1637 658 659 646 645; 1638 658 659 672 671; 1639 659 660 647 646;
1640 659 660 673 672; 1641 660 661 648 647; 1642 660 661 674 673;
1643 661 662 649 648; 1644 661 662 675 674; 1645 662 663 650 649;
1646 662 663 676 675; 1647 663 664 651 650; 1648 663 664 677 676;
1649 664 665 652 651; 1650 664 665 678 677; 1651 665 666 653 652;
1652 665 666 679 678; 1653 666 667 654 653; 1654 666 667 680 679;
1655 667 668 655 654; 1656 667 668 681 680; 1657 669 670 683 682;
1658 670 671 684 683; 1659 671 672 685 684; 1660 672 673 686 685;
1661 673 674 687 686; 1662 674 675 688 687; 1663 675 676 689 688;
1664 676 677 690 689; 1665 677 678 691 690; 1666 678 679 692 691;
1667 679 680 693 692; 1668 680 681 694 693; 1669 682 683 696 695;
# ... 12 like lines cut
START GROUP DEFINITION
MEMBER
_MEZZ 31 51 71 91 111 131 151 171 211 231 251 271 291 552 TO 563 -
1147 TO 1149 1151 TO 1154 1156 TO 1159 1161 1163 TO 1165 1167 TO 1170 1172 -
1173 TO 1175 1177 1179 TO 1181 1183 TO 1186 1188 TO 1191 1193 1195 TO 1197 -
1199 TO 1202 1204 TO 1207 1209 1212 1214 1216 1218 1220 1222 1224 1226 1228 -
1230 1232 1234 1237 1239 1241 1243 1245 TO 1247 1249 1251 1253 1255 1282 -
1283 TO 1314 1316 TO 1320 1322 TO 1326 1328 TO 1333 1335 TO 1354 -
1356 TO 1361 1368 1370 TO 1373 1375 TO 1379 1433 TO 1445 1448 TO 1459 1520 -
1522 1524 1526 1528 1530 1532 1534 1536 1538 1540 1541 2135 2164 2166 2167 -
2169 2171 2174 2175
_MEZZ2 1256 1257 1765 1768 2106 2141 2149 2156 2157 2160
_RODBRACING 995 996 999 1000 1003 TO 1022 1034 TO 1037 1040 TO 1059 -
1068 TO 1091 1100 TO 1123
_COLUMN 1 4 30 32 34 TO 36 50 52 54 TO 56 70 72 74 80 90 92 94 TO 96 100 110 -
112 114 TO 116 120 130 132 134 TO 136 140 150 152 154 TO 156 160 170 172 -
174 TO 176 180 192 194 195 210 212 214 215 230 232 234 250 252 254 TO 256 -
270 272 274 TO 276 290 292 294 TO 296 312 314 TO 316 321 465 468 469 473 -
475 TO 477 482 TO 485 498 TO 500 502 504 512 640 641 644 645 648 649 652 -
653 656 657 661 TO 667 675 TO 685 687 689 690 692 694 695 697 700 702 866 -
1129 1130 1144 1146 1150 1155 1160 1162 1166 1171 1176 1178 1182 1187 1192 -
1194 1198 1203 1208 1210 1215 1217 1221 1223 1225 1227 1231 1233 1235 1236 -
1238 1240 1242 1244 1248 1250 1252 1254 1258 1262 1264 1265 1267 1269 1271 -
1273 1275 1277 1279 1362 1364 1365 1381 1394 1398 1402 1406 1410 1414 1418 -
1426 1430 1460 TO 1495 1497 TO 1519 1521 1523 1525 1527 1529 1531 1533 1535 -
1537 1539 1549 1551 1552 1554 1555 1559 1573 1574 1576 1578 1584 TO 1587 -
1590 1594 1595 1597 1599 1759 1762 1774 1775 1784 1785 1791 1792 1798 1799 -
1805 1806 1812 1813 1819 1820 1826 1827 1833 1834 1840 1841 1847 1848 1854 -
1855 1861 1862 1868 1869 1875 1876 1882 1883 1908 1912 1916 1927 TO 1932 -
2076 2078 2080 2093 2094 2096 2102 2107 2108 2110 2113 TO 2115 2140 2145 -
2146 TO 2147 2158 2159 2165 2170
_FIXEDCOLUMN 1 4 32 34 TO 36 52 54 TO 56 72 74 80 92 94 TO 96 100 112 114 -
115 TO 116 120 132 134 TO 136 140 152 154 TO 156 160 172 174 180 192 194 195 -
212 214 215 232 234 252 254 TO 256 272 274 TO 276 292 294 TO 296 312 314 -
321 640 641 644 645 648 649 652 656 675 684 700 702 866 1130 1144 1146 1150 -
1155 1160 1162 1166 1171 1176 1178 1182 1187 1192 1194 1198 1203 1208 1210 -
1233 1242 1244 1248 1250 1252 1254 1258 1262 1264 1265 1267 1269 1271 1273 -
1275 1277 1279 1362 1364 1365 1381 1430 1774 1775 1784 1785 1791 1792 1798 -
1799 1805 1806 1812 1813 1819 1820 1826 1827 1833 1834 1840 1841 1847 1848 -
1854 1855 1861 1862 1868 1869 1875 1876 1882 1883
_GABLERAFTER 3 11 12 20 24 28 29 73 77 78 83 85 87 TO 89 173 177 178 183 185 -
187 TO 189 233 237 238 243 245 247 TO 249 313 317 318 323 325 327 329 651 -
655 668 TO 670 672 688 691 696 699 701 793 795 807 808 810 842 TO 844 846 -
971 974 2086 2092 2095 2101 2109 2112 2116 2125 2128 2131 2134 2144 2148 -
2152 2155
_MAINRAFTER 33 37 TO 39 42 TO 49 53 57 TO 59 62 TO 69 93 97 TO 99 102 TO 109 -
113 117 TO 119 122 TO 129 133 137 TO 139 142 TO 149 153 157 TO 159 -
162 TO 169 193 197 TO 199 202 TO 209 213 217 TO 219 222 TO 229 253 257 258 -
262 TO 267 269 273 277 278 282 TO 287 289 293 297 298 302 TO 307 309 638 -
639 642 643 646 647 797 TO 806 812 TO 841 848 TO 856 858 TO 861 863 TO 865 -
972 973 975 TO 980 1778 1780 1783 1786 1788 1790 1793 1795 1797 1800 1802 -
1804 1807 1809 1811 1814 1816 1818 1821 1823 1825 1828 1830 1832 1835 1837 -
1839 1842 1844 1846 1849 1851 1853 1856 1858 1860 1863 1865 1867 1870 1872 -
1874 1877 1879 1881 1884 1886 1888 1920 TO 1922 1933 TO 1936 1938 1940 1942 -
1944 1946 1948 1950 1952 1954 1956 1958 1960 1962 1965 1967 1969 1971 1973 -
1975 1977 1979 1981 1983 1985 1987 1989 1991 1994 1996 1998 2000 2002 2004 -
2006 2008 2010 2012 2014 2016 2018 2020 2137 TO 2139
_LOADTRIB7.210 3 11 12 20 22 24 28 29 33 37 TO 39 42 TO 49 53 57 TO 59 62 -
63 TO 69 73 77 78 80 83 85 87 TO 89 792 793 795 797 TO 808 810 971 TO 974 -
1130 1275 1277 1279 1827 1828 1830 1832 1834 1835 1837 1839 1841 1842 1844 -
1846 1848 1849 1851 1853 1948 1950 1952 1954 1977 1979 1981 1983 2006 2008 -
2010 2012 2121 2122 2125 2128 2131 2134 2152 2155
END GROUP DEFINITION
START USER TABLE
TABLE 2
UNIT METER KN
GENERAL
450X450X300X12
0.019764 0.474 0.006 0.474 0.012 0.000483856 0.000483856 7.7222e-07 -
0.00204159 0.00204159 0.00343286 0.00343144 0.00251095 0.00251095 -
5.75981e-06 0.474
PROFILE_POINTS
 -0.15 0.237 0.15 0.237 0.15 0.225 0.003 0.225 0.003 0.003 -
0.225 0.003 0.225 0.15 0.237 0.15 0.237 -0.15 0.225 -0.15 0.225 -0.003 0.003 -
-0.003 0.003 -0.225 0.15 -0.225 0.15 -0.237 -0.15 -0.237 -0.15 -0.225 -0.003 -
-0.225 -0.003 -0.003 -0.225 -0.003 -0.225 -0.15 -0.237 -0.15 -0.237 0.15 -
-0.225 0.15 -0.225 0.003 -0.003 0.003 -0.003 0.225 -0.15 0.225 -0.15 0.237
STRESS_LOCATIONS
 -0.15 0.237 0.15 0.237 0.15 0.225 0.003 0.225 0.003 0.003 -
0.225 0.003 0.225 0.15 0.237 0.15 0.237 -0.15 0.225 -0.15 0.225 -0.003 0.003 -
-0.003 0.003 -0.225 0.15 -0.225 0.15 -0.237 -0.15 -0.237 -0.15 -0.225 -0.003 -
-0.225 -0.003 -0.003 -0.225 -0.003 -0.225 -0.15 -0.237 -0.15 -0.237 0.15 -
-0.225 0.15 -0.225 0.003 -0.003 0.003 -0.003 0.225 -0.15 0.225 -0.15 0.237
END
ELEMENT PROPERTY
1607 TO 1618 1621 TO 1698 2136 2161 TO 2163 2172 2173 THICKNESS 0.1
DEFINE MATERIAL START
ISOTROPIC STEEL
E 2.05e+08
POISSON 0.3
DENSITY 76.8195
ALPHA 1.2e-05
DAMP 0.03
G 7.88462e+07
TYPE STEEL
STRENGTH RY 1.5 RT 1.2
ISOTROPIC CONCRETE
E 2.17185e+07
POISSON 0.17
DENSITY 0.0001
ALPHA 1e-05
DAMP 0.05
G 9.28139e+06
TYPE CONCRETE
STRENGTH FCU 1e-05
END DEFINE MATERIAL
MEMBER PROPERTY
80 100 120 140 152 154 160 644 1130 1144 1146 1160 1162 1176 1178 1192 1194 -
1208 1248 1250 1252 1254 1271 1273 1275 1277 1279 1364 1365 1775 1785 1792 -
1799 1806 1813 1820 1827 1834 1841 1848 1855 1862 1869 1876 -
1883 TAPERED 0.778 0.008 0.778 0.25 0.014
832 837 848 853 858 979 980 1780 1788 1795 1802 1809 1816 1823 1830 1837 -
1844 1851 1858 1865 1872 1879 1886 1921 1934 1936 1938 1940 1942 1944 1946 -
1948 1950 1952 1954 1956 1958 1960 -
1962 TAPERED 0.616 0.006 0.866 0.175 0.01
33 48 53 68 93 108 113 128 133 148 153 168 193 208 213 228 253 273 293 1783 -
1790 1797 1804 1811 1818 1825 1832 1839 1846 1853 1860 1867 1874 1881 -
1888 TAPERED 1.078 0.008 0.578 0.225 0.014
43 47 63 67 103 107 123 127 143 147 163 203 207 223 227 263 283 303 1778 -
1786 1793 1800 1807 1814 1821 1828 1835 1842 1849 1856 1863 1870 1877 -
1884 TAPERED 0.574 0.008 1.074 0.25 0.014
813 815 818 820 823 825 833 835 838 840 854 -
856 TAPERED 0.566 0.005 0.666 0.175 0.008
38 58 98 118 138 158 198 218 278 TAPERED 1.07 0.008 0.57 0.2 0.012
205 209 225 229 285 305 1920 1933 1965 1967 1969 1973 1975 1977 1979 1981 -
1983 1985 1987 1989 1991 TAPERED 0.87 0.005 0.62 0.175 0.01
37 57 97 117 137 157 197 217 257 277 297 TAPERED 1.074 0.008 0.524 0.3 0.012
35 36 55 56 95 96 115 116 135 136 155 156 195 215 255 256 275 276 296 1150 -
1155 1166 1171 1182 1187 1198 1203 1244 1258 -
1262 TAPERED 0.574 0.006 0.574 0.35 0.012
31 51 71 91 111 131 151 211 231 251 271 291 1433 TO 1439 1441 TO 1445 2167 -
2169 TAPERED 0.42 0.005 0.42 0.15 0.008
1147 TO 1149 1151 TO 1154 1156 TO 1159 1161 1163 TO 1165 1167 TO 1170 1172 -
1173 TO 1175 1177 1179 TO 1181 1183 TO 1186 1188 TO 1191 1193 1195 TO 1197 -
1199 TO 1202 1204 TO 1207 1209 1249 1251 -
1253 TAPERED 0.52 0.006 0.52 0.2 0.01
1212 1214 1216 1218 1220 1222 1224 1226 1228 1230 1232 1234 1237 1239 1241 -
1243 1245 TO 1247 1255 1520 1522 1524 1526 1528 1530 1532 1534 1536 1538 -
1540 1541 TAPERED 0.466 0.005 0.466 0.175 0.01
171 1440 TAPERED 0.42 0.005 0.42 0.15 0.008
552 TO 563 1282 TO 1314 1316 TO 1320 1322 TO 1326 1328 TO 1333 1335 TO 1354 -
1356 TO 1360 1368 1370 TO 1373 1375 TO 1379 1448 TO 1459 1768 2106 2135 -
2149 2160 2164 2166 2171 2174 -
2175 TAPERED 0.366 0.005 0.366 0.15 0.008 0.15 0.008
MEMBER PROPERTY COLDFORMED INDIAN
704 705 707 TO 710 712 TO 716 719 720 722 TO 725 727 TO 731 734 735 -
737 TO 740 742 TO 746 749 750 752 TO 755 757 TO 761 764 765 767 TO 770 772 -
773 TO 776 779 780 783 784 868 TO 872 874 TO 877 879 880 882 TO 886 -
888 TO 891 893 894 896 TO 900 902 TO 905 907 908 910 TO 914 916 TO 919 921 -
922 924 TO 928 930 TO 933 935 936 938 939 941 942 944 TO 947 949 TO 953 956 -
957 959 TO 962 964 TO 968 981 TO 984 986 TO 990 1718 1721 1724 1727 1730 -
1733 1736 1739 TO 1756 1890 1891 1893 TO 1896 1898 TO 1902 1939 1941 1945 -
1947 1949 1951 1955 1957 1959 1961 1963 1968 1970 1974 1976 1978 1980 1984 -
1986 1988 1990 1992 1997 1999 2003 2005 2007 2009 2013 2015 2017 2019 -
2021 TABLE ST 200ZS60X2
MEMBER PROPERTY
1551 1552 1554 1555 1559 1573 1574 1576 1578 1584 1585 1594 1597 2093 2094 -
2107 2108 2110 2111 2113 TO 2115 2117 TO 2120 2123 2124 2132 2133 2150 2151 -
2153 2154 TAPERED 0.366 0.005 0.366 0.15 0.008
MEMBER PROPERTY
1380 1384 1388 1392 1396 1400 1404 1408 1412 1416 1420 1424 1428 -
1710 TAPERED 0.674 0.006 0.574 0.175 0.012 0.175 0.012
3 11 12 20 22 24 28 29 73 77 78 83 85 87 TO 89 233 237 238 243 245 -
247 TO 249 313 317 318 323 325 327 329 651 655 688 691 696 699 701 792 793 -
795 807 808 810 842 TO 844 846 971 974 2086 2092 2095 2101 2109 2112 2116 -
2121 2122 2125 2128 2131 2134 2144 2148 2152 -
2155 TAPERED 0.366 0.005 0.366 0.2 0.008 0.2 0.008
30 50 70 90 110 130 150 170 210 230 250 270 290 2165 -
2170 TAPERED 0.366 0.005 0.366 0.175 0.008
500 502 504 1460 TO 1495 TAPERED 0.366 0.005 0.366 0.225 0.008
315 316 485 677 TO 680 682 683 687 689 690 692 695 697 1129 1235 1238 1240 -
1927 TO 1932 TAPERED 0.47 0.005 0.47 0.175 0.008
681 694 1236 TAPERED 0.466 0.005 0.466 0.175 0.008
641 645 649 657 675 684 700 702 866 1587 1595 2076 2078 -
2080 TAPERED 0.47 0.006 0.47 0.175 0.01
199 202 219 222 262 282 302 TAPERED 0.616 0.006 0.566 0.175 0.008
834 836 839 841 850 855 860 1922 1935 1994 1996 1998 2000 2002 2004 2006 -
2008 2010 2012 2014 2016 2018 2020 TAPERED 0.616 0.005 0.566 0.175 0.01
MEMBER PROPERTY APLAPOLLOTUBES
1383 1387 1391 1395 1399 1403 1407 1411 1415 1419 1423 1427 1431 -
1714 TABLE ST 150X100X8.0RHS
MEMBER PROPERTY
1382 1385 1389 1393 1397 1401 1405 1409 1413 1417 1421 1425 1429 1432 1711 -
1715 TAPERED 0.574 0.005 0.474 0.2 0.01 0.2 0.01
1256 1257 1765 2141 2156 2157 TAPERED 0.52 0.006 0.52 0.2 0.01
MEMBER PROPERTY INDIAN
995 996 999 1000 1003 TO 1022 1034 TO 1037 1040 TO 1059 1068 TO 1091 1100 -
1101 TO 1123 1716 1717 1722 1723 1725 1726 1728 1729 1731 1732 1734 1735 -
1737 1738 2023 TO 2030 2035 TO 2042 2047 TO 2054 2059 TO 2065 -
2066 TABLE ST PIPE OD 0.056 ID 0
MEMBER PROPERTY
653 676 685 TAPERED 0.52 0.006 0.52 0.25 0.01
312 314 321 652 1242 1362 TAPERED 0.52 0.006 0.52 0.2 0.01
172 174 180 1210 1233 1381 1430 UPTABLE 2 450X450X300X12
175 176 465 467 TO 469 473 475 TO 477 482 TO 484 659 TO 667 1908 1912 -
1916 TAPERED 0.574 0.005 0.574 0.2 0.012
1519 1521 1523 1525 1527 1529 1531 1533 1535 1537 1539 -
1549 TAPERED 0.42 0.005 0.42 0.2 0.008
MEMBER PROPERTY
232 252 292 640 648 656 1264 1267 1269 TAPERED 0.774 0.006 0.774 0.25 0.012
MEMBER PROPERTY INDIAN
1719 1720 1757 1758 TABLE ST PIPE OD 0.028 ID 0
MEMBER PROPERTY
498 499 512 2096 2102 2158 2159 TAPERED 0.366 0.005 0.366 0.2 0.008
MEMBER PROPERTY
167 TAPERED 0.578 0.008 1.078 0.25 0.012
1 32 34 52 54 72 74 92 94 112 114 132 134 192 194 212 214 234 254 272 274 -
294 1265 1774 1784 1791 1798 1805 1812 1819 1826 1833 1840 1847 1854 1861 -
1868 1875 1882 TAPERED 0.77 0.006 0.77 0.25 0.012
295 TAPERED 0.578 0.006 0.578 0.325 0.014
MEMBER PROPERTY TATASTRUCTURA
703 706 711 717 718 721 726 732 733 736 741 747 751 756 762 763 766 771 777 -
778 781 782 785 TO 791 867 873 878 881 887 892 895 901 906 909 915 920 923 -
929 934 937 940 943 948 954 955 958 963 969 970 985 1361 1366 1606 1889 -
1892 1897 1903 1937 1943 1953 1964 1966 1972 1982 1993 1995 2001 2011 2022 -
2071 TO 2074 TABLE ST 114.3X5.4CHS
748 991 TO 994 997 998 1001 1002 1023 TO 1026 1028 TO 1033 1038 1039 1060 -
1061 TO 1063 1096 TO 1099 1124 TO 1127 2031 TO 2034 2043 TO 2046 -
2055 TO 2058 2067 TO 2070 TABLE ST 139.7X4.8CHS
MEMBER PROPERTY
173 177 178 183 185 187 TO 189 668 TO 670 -
672 TAPERED 0.366 0.004 0.366 0.175 0.008 0.175 0.008
44 46 64 66 104 106 124 126 144 146 204 206 224 226 -
284 TAPERED 0.52 0.005 0.57 0.175 0.008
42 62 102 122 142 TAPERED 0.616 0.006 0.566 0.2 0.008
797 802 812 817 822 TAPERED 0.616 0.006 0.866 0.175 0.008
45 65 105 125 145 TAPERED 0.866 0.006 0.616 0.175 0.008
799 804 814 819 824 TAPERED 0.616 0.006 0.566 0.2 0.008
972 973 975 TO 978 TAPERED 0.616 0.005 0.866 0.2 0.01
49 69 109 129 149 169 TAPERED 0.866 0.005 0.616 0.2 0.01
39 59 99 119 139 159 TAPERED 0.616 0.006 0.566 0.2 0.01
801 806 816 821 826 831 TAPERED 0.616 0.006 0.566 0.2 0.01
164 166 TAPERED 0.524 0.005 0.574 0.175 0.012
828 830 TAPERED 0.574 0.005 0.674 0.175 0.012
829 TAPERED 0.616 0.006 0.566 0.225 0.012
162 TAPERED 0.616 0.006 0.566 0.225 0.012
165 TAPERED 0.624 0.006 0.874 0.225 0.012
827 TAPERED 0.874 0.006 0.624 0.225 0.012
264 266 304 306 TAPERED 0.52 0.005 0.57 0.175 0.01
849 851 859 861 TAPERED 0.566 0.006 0.666 0.175 0.01
1497 TO 1518 TAPERED 0.424 0.006 0.424 0.2 0.012
1211 1213 1215 1217 1219 1221 1223 1225 1227 1229 1231 1386 1390 1394 1398 -
1402 1406 1410 1414 1418 1422 1426 1910 1914 -
1918 TAPERED 0.57 0.005 0.57 0.2 0.01
265 TAPERED 0.87 0.006 0.62 0.2 0.01
800 805 TAPERED 0.566 0.005 0.666 0.175 0.01
286 TAPERED 0.52 0.006 0.57 0.175 0.008
MEMBER PROPERTY TATASTRUCTURA
1064 TO 1067 1092 TO 1095 TABLE ST 300X200X10.0RHS
MEMBER PROPERTY
1586 1759 TAPERED 0.37 0.005 0.37 0.25 0.008
1590 1599 TAPERED 0.416 0.006 0.416 0.3 0.012
2140 2142 2143 2145 TO 2147 TAPERED 0.416 0.006 0.416 0.2 0.01
267 269 287 289 307 309 852 TAPERED 0.466 0.005 0.466 0.175 0.008
639 643 647 TAPERED 0.72 0.005 0.42 0.175 0.01
863 TO 865 TAPERED 0.47 0.005 0.716 0.175 0.01
638 642 646 TAPERED 0.47 0.005 0.42 0.175 0.008
4 TAPERED 0.774 0.008 0.774 0.3 0.014
798 803 TAPERED 0.566 0.005 0.666 0.175 0.01
1762 TAPERED 0.416 0.006 0.416 0.3 0.01
2137 TO 2139 TAPERED 0.424 0.006 1.074 0.2 0.01
258 298 TAPERED 1.07 0.008 0.57 0.225 0.012
1971 TAPERED 0.87 0.006 0.62 0.175 0.01
CONSTANTS
BETA 90 MEMB 175 176 315 316 465 467 TO 469 473 475 TO 477 482 TO 485 512 -
659 TO 667 675 677 TO 684 687 689 690 692 694 695 697 700 702 866 1129 1211 -
1213 1215 1217 1219 1221 1223 1225 1227 1229 1231 1235 1236 1238 1240 1386 -
1390 1394 1398 1402 1406 1410 1414 1418 1422 1426 1497 TO 1519 1521 1523 -
1525 1527 1529 1531 1533 1535 1537 1539 1549 1551 1552 1554 1555 1559 1573 -
1574 1576 1578 1584 TO 1586 1590 1594 1597 1599 1759 1762 1908 1910 1912 -
1914 1916 1918 1927 TO 1932 2093 2094 2096 2102 2107 2108 2110 2111 2113 -
2114 TO 2115 2117 TO 2120 2123 2124 2132 2133 2140 2142 2143 2145 TO 2147 -
2150 2151 2153 2154 2158 2159
MATERIAL STEEL MEMB 1 3 4 11 12 20 22 24 28 TO 39 42 TO 59 62 TO 74 77 78 -
80 83 85 87 TO 100 102 TO 120 122 TO 140 142 TO 160 162 TO 178 180 183 185 -
187 TO 189 192 TO 195 197 TO 199 202 TO 215 217 TO 219 222 TO 234 237 238 -
243 245 247 TO 258 262 TO 267 269 TO 278 282 TO 287 289 TO 298 302 TO 307 -
309 312 TO 318 321 323 325 327 329 465 467 TO 469 473 475 TO 477 482 TO 485 -
498 TO 500 502 504 512 552 TO 563 638 TO 649 651 TO 653 655 TO 657 -
659 TO 670 672 675 TO 685 687 TO 692 694 TO 697 699 TO 793 795 797 TO 808 -
810 812 TO 844 846 848 TO 856 858 TO 861 863 TO 1026 1028 TO 1127 1129 1130 -
1144 1146 TO 1258 1262 1264 1265 1267 1269 1271 1273 1275 1277 1279 1282 -
1283 TO 1314 1316 TO 1320 1322 TO 1326 1328 TO 1333 1335 TO 1354 -
1356 TO 1362 1364 TO 1366 1368 1370 TO 1373 1375 TO 1445 1448 TO 1495 1497 -
1498 TO 1541 1549 1551 1552 1554 1555 1559 1573 1574 1576 1578 1584 TO 1587 -
1590 1594 1595 1597 1599 1606 1710 1711 1714 TO 1759 1762 1765 1768 1774 -
1775 1778 1780 1783 TO 1786 1788 1790 TO 1793 1795 1797 TO 1800 1802 1804 -
1805 TO 1807 1809 1811 TO 1814 1816 1818 TO 1821 1823 1825 TO 1828 1830 1832 -
1833 TO 1835 1837 1839 TO 1842 1844 1846 TO 1849 1851 1853 TO 1856 1858
MATERIAL STEEL MEMB 1860 TO 1863 1865 1867 TO 1870 1872 1874 TO 1877 1879 -
1881 TO 1884 1886 1888 TO 1903 1908 1910 1912 1914 1916 1918 1920 TO 1922 -
1927 TO 2074 2076 2078 2080 2086 2092 TO 2096 2101 2102 2106 TO 2125 2128 -
2131 TO 2135 2137 TO 2160 2164 TO 2167 2169 TO 2171 2174 2175
MATERIAL CONCRETE MEMB 1607 TO 1618 1621 TO 1698 2136 2161 TO 2163 2172 2173
SUPPORTS
1 2 34 35 37 38 55 56 58 59 76 77 97 98 100 101 118 119 121 122 139 140 142 -
143 160 161 163 164 181 182 202 203 205 206 223 224 226 244 245 265 266 268 -
269 286 287 289 290 307 308 310 311 328 329 533 535 555 934 944 951 958 965 -
972 979 986 993 1000 1007 1014 1021 1028 1035 1042 FIXED
32 53 74 95 116 137 158 179 184 185 221 242 263 284 305 331 332 453 TO 455 -
460 TO 462 466 TO 468 480 TO 482 484 486 494 537 539 541 543 545 TO 547 811 -
812 TO 847 849 851 853 855 857 859 861 863 865 867 877 879 882 884 891 901 -
903 911 919 1049 TO 1051 1067 TO 1069 1140 1144 1151 1158 1162 1166 1171 -
1174 1179 1191 1199 1204 1209 1213 1219 TO 1221 1225 PINNED
227 905 1121 1123 1125 FIXED
MEMBER RELEASE
552 TO 563 1214 1216 1218 1222 1224 1226 1230 1232 1234 1239 1241 1243 1282 -
1283 TO 1314 1316 TO 1320 1322 TO 1326 1328 TO 1333 1335 TO 1354 -
1356 TO 1360 1368 1370 TO 1373 1375 TO 1379 1448 TO 1459 1522 1524 1526 -
1530 1532 1534 1538 1540 1541 2135 2141 2164 2166 2171 2174 -
2175 START MY MZ
552 TO 563 684 687 689 690 692 866 1129 1212 1214 1216 1220 1222 1224 1228 -
1230 1232 1235 TO 1241 1282 TO 1314 1316 TO 1320 1322 TO 1326 1328 TO 1333 -
1335 TO 1354 1356 TO 1360 1368 1370 TO 1373 1375 TO 1379 1390 1394 1398 -
1402 1406 1410 1414 1418 1422 1426 1448 TO 1459 1519 TO 1525 1527 TO 1532 -
1535 TO 1540 1549 1573 1574 1576 1578 1584 1597 1759 1762 1910 1914 1918 -
2118 2120 2124 2133 2135 2143 2147 2151 2154 2164 2166 2171 2174 -
2175 END MY MZ
1237 START MY MZ
1218 1257 1526 1765 END MY MZ
1220 1528 2156 2157 START MY MZ
1226 1534 END MY MZ
1228 1536 START MY MZ
1255 START MY MZ
1256 1257 1765 START MY MZ
1256 2141 2156 2157 END MY MZ
2094 END MY MZ
2108 END MY MZ
2111 END MY MZ
2115 END MY MZ
MEMBER TRUSS 
703 TO 723 726 TO 791 867 TO 873 876 TO 887 890 TO 901 904 TO 915 918 TO 970 -
981 TO 994 997 998 1023 TO 1026 1028 TO 1033 1060 TO 1067 1092 TO 1099 1124 -
1125 TO 1127 1366 1383 1391 1395 1399 1403 1407 1411 1415 1419 1423 1427 -
1431 1714 1718 1721 1724 1727 1730 1733 1736 1739 TO 1756 1889 TO 1903 1937 -
1939 1941 1943 1945 1947 1949 1951 1953 1955 1957 1959 1961 1963 1964 1966 -
1968 1970 1972 1974 1976 1978 1980 1982 1984 1986 1988 1990 1992 1993 1995 -
1997 1999 2001 2003 2005 2007 2009 2011 2013 2015 2017 2019 2021 2022 2031 -
2032 TO 2034 2043 TO 2046 2055 TO 2058 2067 TO 2074
MEMBER TENSION 
995 996 999 TO 1022 1034 TO 1059 1068 TO 1091 1100 TO 1123 1716 1717 1719 -
1720 1722 1723 1725 1726 1728 1729 1731 1732 1734 1735 1737 1738 1757 1758 -
2023 TO 2030 2035 TO 2042 2047 TO 2054 2059 TO 2066
ELEMENT PLANE STRESS
1607 TO 1618 1621 TO 1698 2136 2161 TO 2163 2172 2173
DEFINE IS1893 2016 LOAD
ZONE 0.24 RF 4 I 1 SS 2 ST 3 DM 0.05 PX 0.75 PZ 0.75 GL 0
SELFWEIGHT 1.15 
MEMBER WEIGHT
*****(0.15 + 0.4) * 6.82 = 3.751
3 11 12 20 22 24 28 29 33 37 TO 39 42 TO 49 53 57 TO 59 62 TO 69 73 77 78 -
83 85 87 TO 89 93 97 TO 99 102 TO 109 113 117 TO 119 122 TO 129 133 -
137 TO 139 142 TO 149 153 157 TO 159 162 TO 169 193 197 TO 199 202 TO 209 -
213 217 TO 219 222 TO 229 233 237 238 243 245 247 TO 249 253 257 258 262 -
263 TO 267 269 273 277 278 282 TO 287 289 293 297 298 302 TO 307 309 638 639 -
642 643 646 647 655 701 792 793 795 797 TO 808 810 812 TO 844 846 -
848 TO 856 858 TO 861 863 TO 865 971 TO 980 1388 1389 1392 1393 1396 1397 -
1400 1401 1404 1405 1408 1409 1412 1413 1416 1417 1420 1421 1424 1425 1432 -
1710 1711 1715 1778 1780 1783 1786 1788 1790 1793 1795 1797 1800 1802 1804 -
1807 1809 1811 1814 1816 1818 1821 1823 1825 1828 1830 1832 1835 1837 1839 -
1842 1844 1846 1849 1851 1853 1856 1858 1860 1863 1865 1867 1870 1872 1874 -
1877 1879 1881 1884 1886 1888 1920 TO 1922 1933 TO 1936 1938 1940 1942 1944 -
1946 1948 1950 1952 1954 1956 1958 1960 1962 1965 1967 1969 1971 1973 1975 -
1977 1979 1981 1983 1985 1987 1989 1991 1994 1996 1998 2000 2002 2004 2006 -
2008 2010 2012 2014 2016 2018 2020 2086 2092 2095 2101 2109 2112 2116 2121 -
2122 2125 2128 2131 2134 2137 TO 2139 2144 2148 2152 2155 UNI 1.06 0 0
173 177 178 183 185 187 TO 189 313 317 318 323 325 327 329 651 668 TO 670 -
672 688 691 696 699 1380 1382 1428 1429 UNI 0.55 0 0
31 51 71 91 111 131 151 211 231 251 271 291 1147 TO 1149 1151 TO 1154 1156 -
1157 TO 1159 1161 1163 TO 1165 1167 TO 1170 1172 TO 1175 1177 1179 TO 1181 -
1183 TO 1186 1188 TO 1191 1193 1195 TO 1197 1199 TO 1202 1204 TO 1207 1209 -
1249 1251 1253 1433 TO 1439 1441 TO 1445 2167 2169 UNI 41 0 0
171 1212 1214 1216 1218 1220 1222 1224 1226 1228 1230 1232 1234 1237 1239 -
1241 1243 1245 TO 1247 1255 TO 1257 1520 1522 1524 1526 1528 1530 1532 1534 -
1536 1538 1540 1541 1765 2141 2156 2157 UNI 20.5 0 0
3 11 12 20 22 24 28 29 33 37 TO 39 42 TO 49 53 57 TO 59 62 TO 69 73 77 78 -
83 85 87 TO 89 93 97 TO 99 102 TO 109 113 117 TO 119 122 TO 129 133 -
137 TO 139 142 TO 149 153 157 TO 159 162 TO 169 193 197 TO 199 202 TO 209 -
213 217 TO 219 222 TO 229 233 237 238 243 245 247 TO 249 253 257 258 262 -
263 TO 267 269 273 277 278 282 TO 287 289 293 297 298 302 TO 307 309 638 639 -
642 643 646 647 655 701 792 793 795 797 TO 808 810 812 TO 844 846 -
848 TO 856 858 TO 861 863 TO 865 971 TO 980 1778 1780 1783 1786 1788 1790 -
1793 1795 1797 1800 1802 1804 1807 1809 1811 1814 1816 1818 1821 1823 1825 -
1828 1830 1832 1835 1837 1839 1842 1844 1846 1849 1851 1853 1856 1858 1860 -
1863 1865 1867 1870 1872 1874 1877 1879 1881 1884 1886 1888 1920 TO 1922 -
1933 TO 1936 1938 1940 1942 1944 1946 1948 1950 1952 1954 1956 1958 1960 -
1962 1965 1967 1969 1971 1973 1975 1977 1979 1981 1983 1985 1987 1989 1991 -
1994 1996 1998 2000 2002 2004 2006 2008 2010 2012 2014 2016 2018 2020 2086 -
2092 2095 2101 2109 2112 2116 2121 2122 2125 2128 2131 2134 2137 TO 2139 -
2144 2148 2152 2155 UNI 2.829 0 0
173 177 178 183 185 187 TO 189 313 317 318 323 325 327 329 651 668 TO 670 -
672 688 691 696 699 UNI 1.414 0 0
1368 1370 TO 1373 1375 TO 1379 2166 2174 2175 UNI 2 0 0
***************************************************************
LOAD 1 EQ1
1893 LOAD X 1
PERFORM ANALYSIS
CHANGE
***************************************************************
***************************************************************
LOAD 2 EQ2
1893 LOAD X -1
PERFORM ANALYSIS
CHANGE
***************************************************************
LOAD 3 EQ1
1893 LOAD Z 1
PERFORM ANALYSIS
CHANGE
***************************************************************
***************************************************************
LOAD 4 EQ2
1893 LOAD Z -1
PERFORM ANALYSIS
CHANGE
***************************************************************
****Dead Load ******
LOAD 5 DL
SELFWEIGHT Y -1.15 
SELFWEIGHT Y -1.15 LIST 1858 1860 TO 1863 1865 1867 TO 1870 1872 -
1874 TO 1877 1879 1881 TO 1884 1886 1888 TO 1903 1908 1910 1912 1914 1916 -
1918 1920 TO 1922 1927 TO 2074 2076 2078 2080 2086 2092 TO 2096 2101 2102 -
2106 TO 2125 2128 2131 TO 2160 2164 TO 2167 2169 TO 2171
SELFWEIGHT Y -1.15 LIST 1 3 4 11 12 20 22 24 28 TO 39 42 TO 59 62 TO 74 77 -
78 80 83 85 87 TO 100 102 TO 120 122 TO 140 142 TO 160 162 TO 178 180 183 -
185 187 TO 189 192 TO 195 197 TO 199 202 TO 215 217 TO 219 222 TO 234 237 -
238 243 245 247 TO 258 262 TO 267 269 TO 278 282 TO 287 289 TO 298 -
302 TO 307 309 312 TO 318 321 323 325 327 329 465 467 TO 469 473 475 TO 477 -
482 TO 485 498 TO 500 502 504 512 552 TO 563 638 TO 649 651 TO 653 -
655 TO 657 659 TO 670 672 675 TO 685 687 TO 692 694 TO 697 699 TO 793 795 -
797 TO 808 810 812 TO 844 846 848 TO 856 858 TO 861 863 TO 1026 -
1028 TO 1127 1129 1130 1144 1146 TO 1258 1262 1264 1265 1267 1269 1271 1273 -
1275 1277 1279 1282 TO 1314 1316 TO 1320 1322 TO 1326 1328 TO 1333 -
1335 TO 1354 1356 TO 1362 1364 TO 1366 1368 1370 TO 1373 1375 TO 1445 1448 -
1449 TO 1495 1497 TO 1541 1549 1551 1552 1554 1555 1559 1573 1574 1576 1578 -
1584 TO 1587 1590 1594 1595 1597 1599 1606 TO 1618 1621 TO 1698 1710 1711 -
1714 TO 1759 1762 1765 1768 1774 1775 1778 1780 1783 TO 1786 1788 -
1790 TO 1793 1795 1797 TO 1800 1802 1804 TO 1807 1809 1811 TO 1814 1816 -
1818 TO 1821 1823 1825 TO 1828 1830 1832 TO 1835 1837 1839 TO 1842 1844 -
1846 TO 1849
SELFWEIGHT Y -1.15 LIST 1851 1853 TO 1856 2174 2175
SELFWEIGHT Y -1.15 LIST 1858 1860 TO 1863 1865 1867 TO 1870 1872 -
1874 TO 1877 1879 1881 TO 1884 1886 1888 TO 1903 1908 1910 1912 1914 1916 -
1918 1920 TO 1922 1927 TO 2074 2076 2078 2080 2086 2092 TO 2096 2101 2102 -
2106 TO 2125 2128 2131 TO 2160 2164 TO 2167 2169 TO 2171
MEMBER LOAD
****0.15 x 6.82 = -1.023
3 11 12 20 22 24 28 29 33 37 TO 39 42 TO 49 53 57 TO 59 62 TO 69 73 77 78 -
83 85 87 TO 89 93 97 TO 99 102 TO 109 113 117 TO 119 122 TO 129 133 -
137 TO 139 142 TO 149 153 157 TO 159 162 TO 169 193 197 TO 199 202 TO 209 -
213 217 TO 219 222 TO 229 233 237 238 243 245 247 TO 249 253 257 258 262 -
263 TO 267 269 273 277 278 282 TO 287 289 293 297 298 302 TO 307 309 638 639 -
642 643 646 647 792 793 795 797 TO 808 810 812 TO 844 846 848 TO 856 858 -
859 TO 861 863 TO 865 971 TO 980 1388 1389 1392 1393 1396 1397 1400 1401 -
1404 1405 1408 1409 1412 1413 1416 1417 1420 1421 1424 1425 1432 1710 1711 -
1715 1778 1780 1783 1786 1788 1790 1793 1795 1797 1800 1802 1804 1807 1809 -
1811 1814 1816 1818 1821 1823 1825 1828 1830 1832 1835 1837 1839 1842 1844 -
1846 1849 1851 1853 1856 1858 1860 1863 1865 1867 1870 1872 1874 1877 1879 -
1881 1884 1886 1888 1920 TO 1922 1933 TO 1936 1938 1940 1942 1944 1946 1948 -
1950 1952 1954 1956 1958 1960 1962 1965 1967 1969 1971 1973 1975 1977 1979 -
1981 1983 1985 1987 1989 1991 1994 1996 1998 2000 2002 2004 2006 2008 2010 -
2012 2014 2016 2018 2020 2086 2092 2095 2101 2109 2112 2116 2121 2122 2125 -
2128 2131 2134 2137 TO 2139 2144 2148 2152 2155 UNI GY -1.06
31 51 71 91 211 231 251 271 291 1433 TO 1436 1441 TO 1445 2167 -
2169 UNI GY -26.5
173 177 178 183 185 187 TO 189 313 317 318 323 325 327 329 651 655 -
668 TO 670 672 688 691 696 699 701 1380 1382 1428 1429 UNI GY -0.55
171 1212 1214 1216 1218 1220 1222 1224 1226 1228 1230 1232 1234 1237 1239 -
1241 1243 1245 TO 1247 1255 1520 1522 1524 1526 1528 1530 1532 1534 1536 -
1538 1540 1541 UNI GY -13.25
111 131 151 1147 TO 1149 1151 TO 1154 1156 TO 1159 1161 1163 TO 1165 1167 -
1168 TO 1170 1172 TO 1175 1177 1179 TO 1181 1183 TO 1186 1188 TO 1191 1193 -
1195 TO 1197 1199 TO 1202 1204 TO 1207 1209 1437 TO 1439 UNI GY -25
1249 1251 1253 UNI GY -24
1256 1257 1765 2141 2156 2157 UNI GY -12
1368 1370 TO 1373 1375 TO 1379 2166 2174 2175 UNI GY -2
***************************************************************
***************************************************************
****Live Load ******
LOAD 6 LL
MEMBER LOAD
****0.57 x 6.82 = -3.89
3 11 12 20 22 24 28 29 33 37 TO 39 42 TO 49 53 57 TO 59 62 TO 69 73 77 78 -
83 85 87 TO 89 93 97 TO 99 102 TO 109 113 117 TO 119 122 TO 129 133 -
137 TO 139 142 TO 149 153 157 TO 159 162 TO 169 193 197 TO 199 202 TO 209 -
213 217 TO 219 222 TO 229 233 237 238 243 245 247 TO 249 253 257 258 262 -
263 TO 267 269 273 277 278 282 TO 287 289 293 297 298 302 TO 307 309 638 639 -
642 643 646 647 792 793 795 797 TO 808 810 812 TO 844 846 848 TO 856 858 -
859 TO 861 863 TO 865 971 TO 980 1388 1389 1392 1393 1396 1397 1400 1401 -
1404 1405 1408 1409 1412 1413 1416 1417 1420 1421 1424 1425 1432 1710 1711 -
1715 1778 1780 1783 1786 1788 1790 1793 1795 1797 1800 1802 1804 1807 1809 -
1811 1814 1816 1818 1821 1823 1825 1828 1830 1832 1835 1837 1839 1842 1844 -
1846 1849 1851 1853 1856 1858 1860 1863 1865 1867 1870 1872 1874 1877 1879 -
1881 1884 1886 1888 1920 TO 1922 1933 TO 1936 1938 1940 1942 1944 1946 1948 -
1950 1952 1954 1956 1958 1960 1962 1965 1967 1969 1971 1973 1975 1977 1979 -
1981 1983 1985 1987 1989 1991 1994 1996 1998 2000 2002 2004 2006 2008 2010 -
2012 2014 2016 2018 2020 2086 2092 2095 2101 2109 2112 2116 2121 2122 2125 -
2128 2131 2134 2137 TO 2139 2144 2148 2152 2155 UNI GY -4.045
173 177 178 183 185 187 TO 189 313 317 318 323 325 327 329 651 655 -
668 TO 670 672 688 691 696 699 701 1380 1382 1428 1429 UNI GY -2.022
****Coll Load ******
LOAD 7 CL
MEMBER LOAD
****0.4 x 6.82 = -2.73
3 11 12 20 22 24 28 29 33 37 TO 39 42 TO 49 53 57 TO 59 62 TO 69 73 77 78 -
83 85 87 TO 89 93 97 TO 99 102 TO 109 113 117 TO 119 122 TO 129 133 -
137 TO 139 142 TO 149 153 157 TO 159 162 TO 169 193 197 TO 199 202 TO 209 -
213 217 TO 219 222 TO 229 233 237 238 243 245 247 TO 249 253 257 258 262 -
263 TO 267 269 273 277 278 282 TO 287 289 293 297 298 302 TO 307 309 638 639 -
642 643 646 647 792 793 795 797 TO 808 810 812 TO 844 846 848 TO 856 858 -
859 TO 861 863 TO 865 971 TO 980 1778 1780 1783 1786 1788 1790 1793 1795 -
1797 1800 1802 1804 1807 1809 1811 1814 1816 1818 1821 1823 1825 1828 1830 -
1832 1835 1837 1839 1842 1844 1846 1849 1851 1853 1856 1858 1860 1863 1865 -
1867 1870 1872 1874 1877 1879 1881 1884 1886 1888 1920 TO 1922 1933 TO 1936 -
1938 1940 1942 1944 1946 1948 1950 1952 1954 1956 1958 1960 1962 1965 1967 -
1969 1971 1973 1975 1977 1979 1981 1983 1985 1987 1989 1991 1994 1996 1998 -
2000 2002 2004 2006 2008 2010 2012 2014 2016 2018 2020 2086 2092 2095 2101 -
2109 2112 2116 2121 2122 2125 2128 2131 2134 2137 TO 2139 2144 2148 2152 -
2155 UNI GY -2.839
173 177 178 183 185 187 TO 189 313 317 318 323 325 327 329 651 655 -
668 TO 670 672 688 691 696 699 701 UNI GY -1.419
*********WIND LOAD*******
************WIND PRESSURE LEFT TO RIGHT*********
LOAD 8 WLP
MEMBER LOAD
****0.2 x 1.165 x 6.81 = 1.586
100 120 140 160 640 644 648 656 1146 1162 1178 1194 1264 1265 1267 1269 1271 -
1273 UNI GX 1.586
****-1.358 x 1.165 x 6.81 = 10.767
97 99 106 TO 109 117 119 126 TO 129 137 139 146 TO 149 157 159 166 TO 169 -
197 199 206 TO 209 217 219 226 TO 229 237 247 TO 249 257 266 267 269 277 -
286 287 289 297 306 307 309 638 639 642 643 646 647 815 816 820 821 825 826 -
830 831 835 836 840 TO 842 846 851 852 856 861 863 TO 865 975 TO 980 2086 -
2095 2101 2137 TO 2139 2144 UNI Y 10.767
****-0.9 x 1.165 x 6.81 = 7.136
93 98 102 TO 105 113 118 122 TO 125 133 138 142 TO 145 153 158 162 TO 165 -
193 198 202 TO 205 213 218 222 TO 225 233 238 243 245 253 258 262 TO 265 -
273 278 282 TO 285 293 298 302 TO 305 812 TO 814 817 TO 819 822 TO 824 827 -
828 TO 829 832 TO 834 837 TO 839 843 844 848 TO 850 853 TO 855 858 TO 860 -
1778 1780 1783 1786 1788 1790 1793 1795 1797 1800 1802 1804 1807 1809 1811 -
1814 1816 1818 1821 1823 1825 1856 1858 1860 1863 1865 1867 1870 1872 1874 -
1877 1879 1881 1884 1886 1888 1920 TO 1922 1933 TO 1936 1938 1940 1942 1944 -
1946 1956 1958 1960 1962 1965 1967 1969 1971 1973 1975 1985 1987 1989 1991 -
1994 1996 1998 2000 2002 2004 2014 2016 2018 2020 2092 2109 2112 2116 -
2148 UNI Y 7.136
****-0.7 x 1.165 x 6.81 = 5.55
641 645 649 657 1775 1792 1799 1806 1813 1820 1855 1862 1869 1876 UNI GX 5.55
**********
684 685 687 689 690 692 694 697 1129 1235 1236 1238 1240 1928 1930 -
1932 UNI GZ -3.38
465 473 660 TO 667 1213 1215 1217 1219 1221 1223 1225 1227 1229 1231 1390 -
1394 1398 1402 1406 1410 1414 1418 1422 1426 1910 1914 1918 UNI GZ 3.38
180 652 1210 1362 1381 UNI GX 0.8
177 187 TO 189 317 327 329 651 655 668 672 688 699 701 UNI Y 5.8
173 178 183 185 313 318 323 325 669 670 691 696 UNI Y 3.7
1785 1883 UNI GX 2.7
321 652 1242 1362 UNI GZ -1.7
180 1210 1233 UNI GZ 1.7
1388 1389 1392 1393 1396 1397 1400 1401 1404 1405 1408 1409 1412 1413 1416 -
1417 1420 1421 1424 1425 1432 1710 1711 1715 UNI Y 11.5
1380 1382 1428 1429 UNI Y 5.5
*****
MEMBER LOAD
****0.2 x 1.166 x 7.21 = 1.682
80 1130 1275 1277 1279 UNI GX 1.682
****-1.358 x 1.166 x 7.21 = 11.415
11 24 28 29 37 39 46 TO 49 57 59 66 TO 69 77 87 TO 89 795 800 801 805 806 -
810 971 TO 974 2131 2134 2152 UNI Y 11.415
****-0.9 x 1.166 x 7.21 = 7.566
3 12 20 22 33 38 42 TO 45 53 58 62 TO 65 73 78 83 85 792 793 797 TO 799 802 -
803 TO 804 807 808 1828 1830 1832 1835 1837 1839 1842 1844 1846 1849 1851 -
1853 1948 1950 1952 1954 1977 1979 1981 1983 2006 2008 2010 2012 2121 2122 -
2125 2128 2155 UNI Y 7.566
****-0.7 x 1.166 x 7.21 = 5.885
1827 1834 1841 1848 UNI GX 5.885
************WIND PRESSURE RIGHT TO LEFT*********
LOAD 9 WRP
MEMBER LOAD
****-0.7 x 1.165 x 6.81 = -5.55
100 120 140 160 640 644 648 656 1146 1162 1178 1194 1264 1265 1267 1269 1271 -
1273 UNI GX -5.55
****-0.9 x 1.165 x 6.81 = 7.136
97 99 106 TO 109 117 119 126 TO 129 137 139 146 TO 149 157 159 166 TO 169 -
197 199 206 TO 209 217 219 226 TO 229 237 247 TO 249 257 266 267 269 277 -
286 287 289 297 306 307 309 638 639 642 643 646 647 815 816 820 821 825 826 -
830 831 835 836 840 TO 842 846 851 852 856 861 863 TO 865 975 TO 980 2086 -
2095 2101 2137 TO 2139 2144 UNI Y 7.136
****-1.358 x 1.165 x 6.81 = 10.767
93 98 102 TO 105 113 118 122 TO 125 133 138 142 TO 145 153 158 162 TO 165 -
193 198 202 TO 205 213 218 222 TO 225 233 238 243 245 253 258 262 TO 265 -
273 278 282 TO 285 293 298 302 TO 305 812 TO 814 817 TO 819 822 TO 824 827 -
828 TO 829 832 TO 834 837 TO 839 843 844 848 TO 850 853 TO 855 858 TO 860 -
1778 1780 1783 1786 1788 1790 1793 1795 1797 1800 1802 1804 1807 1809 1811 -
1814 1816 1818 1821 1823 1825 1856 1858 1860 1863 1865 1867 1870 1872 1874 -
1877 1879 1881 1884 1886 1888 1920 TO 1922 1933 TO 1936 1938 1940 1942 1944 -
1946 1956 1958 1960 1962 1965 1967 1969 1971 1973 1975 1985 1987 1989 1991 -
1994 1996 1998 2000 2002 2004 2014 2016 2018 2020 2092 2109 2112 2116 -
2148 UNI Y 10.767
****0.2 x 1.165 x 6.81 = -1.586
641 645 649 657 1775 1792 1799 1806 1813 1820 1855 1862 1869 1876 UNI GX -1.586
**************
465 473 660 TO 667 1213 1215 1217 1219 1221 1223 1225 1227 1229 1231 1390 -
1394 1398 1402 1406 1410 1414 1418 1422 1426 1910 1914 1918 UNI GZ 3.38
684 685 687 689 690 692 694 697 1129 1235 1236 1238 1240 1928 1930 -
1932 UNI GZ -3.38
180 652 1210 1362 1381 UNI GX -2.7
177 187 TO 189 317 327 329 651 655 668 672 688 699 701 UNI Y 3.7
173 178 183 185 313 318 323 325 669 670 691 696 UNI Y 5.8
1785 1883 UNI GX -0.8
180 1210 1233 1381 UNI GZ 1.7
321 652 1242 1362 UNI GZ -1.7
1388 1389 1392 1393 1396 1397 1400 1401 1404 1405 1408 1409 1412 1413 1416 -
1417 1420 1421 1424 1425 1432 1710 1711 1715 UNI Y 11.5
1380 1382 1428 1429 UNI Y 5.5
****
MEMBER LOAD
****-0.7 x 1.166 x 7.21 = -5.885
80 1130 1275 1277 1279 UNI GX -5.885
****-0.9 x 1.166 x 7.21 = 7.566
11 24 28 29 37 39 46 TO 49 57 59 66 TO 69 77 87 TO 89 795 800 801 805 806 -
810 971 TO 974 2131 2134 2152 UNI Y 7.566
****-1.358 x 1.166 x 7.21 = 11.415
3 12 20 22 33 38 42 TO 45 53 58 62 TO 65 73 78 83 85 792 793 797 TO 799 802 -
803 TO 804 807 808 1828 1830 1832 1835 1837 1839 1842 1844 1846 1849 1851 -
1853 1948 1950 1952 1954 1977 1979 1981 1983 2006 2008 2010 2012 2121 2122 -
2125 2128 2155 UNI Y 11.415
****0.2 x 1.166 x 7.21 = -1.682
1827 1834 1841 1848 UNI GX -1.682
************WIND SUCTION LEFT TO RIGHT*********
LOAD 10 WLS
MEMBER LOAD
****1.2 x 1.165 x 6.81 = 9.515
100 120 140 160 640 644 648 656 1146 1162 1178 1194 1264 1265 1267 1269 1271 -
1273 UNI GX 9.515
****-0.358 x 1.165 x 6.81 = 2.839
97 99 106 TO 109 117 119 126 TO 129 137 139 146 TO 149 157 159 166 TO 169 -
197 199 206 TO 209 217 219 226 TO 229 237 247 TO 249 257 266 267 269 277 -
286 287 289 297 306 307 309 638 639 642 643 646 647 815 816 820 821 825 826 -
830 831 835 836 840 TO 842 846 851 852 856 861 863 TO 865 975 TO 980 2086 -
2095 2101 2137 TO 2139 2144 UNI Y 2.839
****0.1 x 1.165 x 6.81 = -0.793
93 98 102 TO 105 113 118 122 TO 125 133 138 142 TO 145 153 158 162 TO 165 -
193 198 202 TO 205 213 218 222 TO 225 233 238 243 245 253 258 262 TO 265 -
273 278 282 TO 285 293 298 302 TO 305 812 TO 814 817 TO 819 822 TO 824 827 -
828 TO 829 832 TO 834 837 TO 839 843 844 848 TO 850 853 TO 855 858 TO 860 -
1778 1780 1783 1786 1788 1790 1793 1795 1797 1800 1802 1804 1807 1809 1811 -
1814 1816 1818 1821 1823 1825 1856 1858 1860 1863 1865 1867 1870 1872 1874 -
1877 1879 1881 1884 1886 1888 1920 TO 1922 1933 TO 1936 1938 1940 1942 1944 -
1946 1956 1958 1960 1962 1965 1967 1969 1971 1973 1975 1985 1987 1989 1991 -
1994 1996 1998 2000 2002 2004 2014 2016 2018 2020 2092 2109 2112 2116 -
2148 UNI Y -0.793
****0.3 x 1.165 x 6.81 = -2.379
641 645 649 657 1775 1792 1799 1806 1813 1820 1855 1862 1869 1876 UNI GX -2.379
**********************
465 473 660 TO 667 1213 1215 1217 1219 1221 1223 1225 1227 1229 1231 1390 -
1394 1398 1402 1406 1410 1414 1418 1422 1426 1910 1914 1918 UNI GZ 6.76
684 685 687 689 690 692 694 697 1129 1235 1236 1238 1240 1928 1930 -
1932 UNI GZ -6.76
180 652 1210 1362 1381 UNI GX 4.75
177 187 TO 189 317 327 329 651 655 668 672 688 699 701 UNI Y 1.8
173 178 183 185 313 318 323 325 669 670 691 696 UNI Y -0.4
1785 UNI GX -1.2
180 1210 1233 UNI GZ 3.4
321 652 1242 1362 UNI GZ -3.4
1388 1389 1392 1393 1396 1397 1400 1401 1404 1405 1408 1409 1412 1413 1416 -
1417 1420 1421 1424 1425 1432 1710 1711 1715 UNI Y 11.5
1380 1382 1428 1429 UNI Y 5.5
******************
MEMBER LOAD
****1.2 x 1.166 x 7.21 = 10.087
80 1130 1275 1277 1279 UNI GX 10.087
****-0.358 x 1.166 x 7.21 = 3.01
11 24 28 29 37 39 46 TO 49 57 59 66 TO 69 77 87 TO 89 795 800 801 805 806 -
810 971 TO 974 2131 2134 2152 UNI Y 3.01
****0.1 x 1.166 x 7.21 = -0.841
3 12 20 22 33 38 42 TO 45 53 58 62 TO 65 73 78 83 85 792 793 797 TO 799 802 -
803 TO 804 807 808 1828 1830 1832 1835 1837 1839 1842 1844 1846 1849 1851 -
1853 1948 1950 1952 1954 1977 1979 1981 1983 2006 2008 2010 2012 2121 2122 -
2125 2128 2155 UNI Y -0.841
****0.3 x 1.166 x 7.21 = -2.522
1827 1834 1841 1848 UNI GX -2.522
************WINDSUCTION RIGHT TO LEFT*********
LOAD 11 WRS
MEMBER LOAD
****0.3 x 1.165 x 6.81 = 2.379
100 120 140 160 640 644 648 656 1146 1162 1178 1194 1264 1265 1267 1269 1271 -
1273 UNI GX 2.379
****0.1 x 1.165 x 6.81 = -0.793
97 99 106 TO 109 117 119 126 TO 129 137 139 146 TO 149 157 159 166 TO 169 -
197 199 206 TO 209 217 219 226 TO 229 237 247 TO 249 257 266 267 269 277 -
286 287 289 297 306 307 309 638 639 642 643 646 647 815 816 820 821 825 826 -
830 831 835 836 840 TO 842 846 851 852 856 861 863 TO 865 975 TO 980 2086 -
2095 2101 2137 TO 2139 2144 UNI Y -0.793
****-0.358 x 1.165 x 6.81 = 2.839
93 98 102 TO 105 113 118 122 TO 125 133 138 142 TO 145 153 158 162 TO 165 -
193 198 202 TO 205 213 218 222 TO 225 233 238 243 245 253 258 262 TO 265 -
273 278 282 TO 285 293 298 302 TO 305 812 TO 814 817 TO 819 822 TO 824 827 -
828 TO 829 832 TO 834 837 TO 839 843 844 848 TO 850 853 TO 855 858 TO 860 -
1778 1780 1783 1786 1788 1790 1793 1795 1797 1800 1802 1804 1807 1809 1811 -
1814 1816 1818 1821 1823 1825 1856 1858 1860 1863 1865 1867 1870 1872 1874 -
1877 1879 1881 1884 1886 1888 1920 TO 1922 1933 TO 1936 1938 1940 1942 1944 -
1946 1956 1958 1960 1962 1965 1967 1969 1971 1973 1975 1985 1987 1989 1991 -
1994 1996 1998 2000 2002 2004 2014 2016 2018 2020 2092 2109 2112 2116 -
2148 UNI Y 2.839
****1.2 x 1.165 x 6.81 = -9.515
641 645 649 657 1775 1792 1799 1806 1813 1820 1855 1862 1869 1876 UNI GX -9.515
********************
465 473 660 TO 667 1213 1215 1217 1219 1221 1223 1225 1227 1229 1231 1390 -
1394 1398 1402 1406 1410 1414 1418 1422 1426 1910 1914 1918 UNI GZ 6.76
684 685 687 689 690 692 694 697 1129 1235 1236 1238 1240 1928 1930 -
1932 UNI GZ -6.76
180 652 1210 1362 1381 UNI GX -1.2
177 187 TO 189 317 327 329 651 655 668 672 688 699 701 UNI Y -0.4
173 178 183 185 313 318 323 325 669 670 691 696 UNI Y 1.8
1785 1883 UNI GX 4.75
180 1210 1233 1381 1430 UNI GZ 3.4
321 652 1242 1362 UNI GZ -3.4
1388 1389 1392 1393 1396 1397 1400 1401 1404 1405 1408 1409 1412 1413 1416 -
1417 1420 1421 1424 1425 1432 1710 1711 1715 UNI Y 11.5
1380 1382 1428 1429 UNI Y 5.5
*****************
MEMBER LOAD
****0.3 x 1.166 x 7.21 = 2.522
80 1130 1275 1277 1279 UNI GX 2.522
****0.1 x 1.166 x 7.21 = -0.841
11 24 28 29 37 39 46 TO 49 57 59 66 TO 69 77 87 TO 89 795 800 801 805 806 -
810 971 TO 974 2131 2134 2152 UNI Y -0.841
****-0.358 x 1.166 x 7.21 = 3.01
3 12 20 22 33 38 42 TO 45 53 58 62 TO 65 73 78 83 85 792 793 797 TO 799 802 -
803 TO 804 807 808 1828 1830 1832 1835 1837 1839 1842 1844 1846 1849 1851 -
1853 1948 1950 1952 1954 1977 1979 1981 1983 2006 2008 2010 2012 2121 2122 -
2125 2128 2155 UNI Y 3.01
****1.2 x 1.166 x 7.21 = -10.087
1827 1834 1841 1848 UNI GX -10.087
************WIND PARALLEL PRESSURE*********
LOAD 12 WPP-1
MEMBER LOAD
****-1 x 1.165 x 6.81 = -7.929
100 120 140 160 640 644 648 656 1146 1162 1178 1194 1264 1265 1267 1269 1271 -
1273 UNI GX -7.929
****-1.3 x 1.165 x 6.81 = 10.308
97 99 106 TO 109 117 119 126 TO 129 137 139 146 TO 149 157 159 166 TO 169 -
197 199 206 TO 209 217 219 226 TO 229 237 247 TO 249 257 266 267 269 277 -
286 287 289 297 306 307 309 638 639 642 643 646 647 815 816 820 821 825 826 -
830 831 835 836 840 TO 842 846 851 852 856 861 863 TO 865 975 TO 980 2086 -
2095 2101 2137 TO 2139 2144 UNI Y 10.308
****-1.3 x 1.165 x 6.81 = 10.308
93 98 102 TO 105 113 118 122 TO 125 133 138 142 TO 145 153 158 162 TO 165 -
193 198 202 TO 205 213 218 222 TO 225 233 238 243 245 253 258 262 TO 265 -
273 278 282 TO 285 293 298 302 TO 305 812 TO 814 817 TO 819 822 TO 824 827 -
828 TO 829 832 TO 834 837 TO 839 843 844 848 TO 850 853 TO 855 858 TO 860 -
1778 1780 1783 1786 1788 1790 1793 1795 1797 1800 1802 1804 1807 1809 1811 -
1814 1816 1818 1821 1823 1825 1856 1858 1860 1863 1865 1867 1870 1872 1874 -
1877 1879 1881 1884 1886 1888 1920 TO 1922 1933 TO 1936 1938 1940 1942 1944 -
1946 1956 1958 1960 1962 1965 1967 1969 1971 1973 1975 1985 1987 1989 1991 -
1994 1996 1998 2000 2002 2004 2014 2016 2018 2020 2092 2109 2112 2116 -
2148 UNI Y 10.308
****-1 x 1.165 x 6.81 = 7.929
641 645 649 657 1775 1792 1799 1806 1813 1820 1855 1862 1869 1876 UNI GX 7.929
**************
684 685 687 689 690 692 694 697 1129 1235 1236 1238 1240 1928 1930 -
1932 UNI GZ 7.61
465 473 660 TO 667 1213 1215 1217 1219 1221 1223 1225 1227 1229 1231 1390 -
1394 1398 1402 1406 1410 1414 1418 1422 1426 1910 1914 1918 UNI GZ -0.85
180 652 1210 1362 1381 UNI GX -4
177 187 TO 189 317 327 329 651 655 668 672 688 699 701 UNI Y 5.3
173 178 183 185 313 318 323 325 669 670 691 696 UNI Y 5.3
1785 1883 UNI GX 4
321 652 1242 1362 UNI GZ 3.82
180 1210 1233 1381 1430 UNI GZ -0.45
1388 1389 1392 1393 1396 1397 1400 1401 1404 1405 1408 1409 1412 1413 1416 -
1417 1420 1421 1424 1425 1432 1710 1711 1715 UNI Y 11.5
1380 1382 1428 1429 UNI Y 5.5
**********
MEMBER LOAD
****-1 x 1.166 x 7.21 = -8.406
80 1130 1275 1277 1279 UNI GX -8.406
****-1.3 x 1.166 x 7.21 = 10.928
11 24 28 29 37 39 46 TO 49 57 59 66 TO 69 77 87 TO 89 795 800 801 805 806 -
810 971 TO 974 2131 2134 2152 UNI Y 10.928
****-1.3 x 1.166 x 7.21 = 10.928
3 12 20 22 33 38 42 TO 45 53 58 62 TO 65 73 78 83 85 792 793 797 TO 799 802 -
803 TO 804 807 808 1828 1830 1832 1835 1837 1839 1842 1844 1846 1849 1851 -
1853 1948 1950 1952 1954 1977 1979 1981 1983 2006 2008 2010 2012 2121 2122 -
2125 2128 2155 UNI Y 10.928
****-1 x 1.166 x 7.21 = 8.406
1827 1834 1841 1848 UNI GX 8.406
************WIND PARALLEL SUCTION********
LOAD 13 WPS-1
MEMBER LOAD
****0 x 1.165 x 6.81 = 0
100 120 140 160 640 644 648 656 1146 1162 1178 1194 1264 1265 1267 1269 1271 -
1273 UNI GX 0
****-0.3 x 1.165 x 6.81 = 2.379
97 99 106 TO 109 117 119 126 TO 129 137 139 146 TO 149 157 159 166 TO 169 -
197 199 206 TO 209 217 219 226 TO 229 237 247 TO 249 257 266 267 269 277 -
286 287 289 297 306 307 309 638 639 642 643 646 647 815 816 820 821 825 826 -
830 831 835 836 840 TO 842 846 851 852 856 861 863 TO 865 975 TO 980 2086 -
2095 2101 2137 TO 2139 2144 UNI Y 2.379
****-0.3 x 1.165 x 6.81 = 2.379
93 98 102 TO 105 113 118 122 TO 125 133 138 142 TO 145 153 158 162 TO 165 -
193 198 202 TO 205 213 218 222 TO 225 233 238 243 245 253 258 262 TO 265 -
273 278 282 TO 285 293 298 302 TO 305 812 TO 814 817 TO 819 822 TO 824 827 -
828 TO 829 832 TO 834 837 TO 839 843 844 848 TO 850 853 TO 855 858 TO 860 -
1778 1780 1783 1786 1788 1790 1793 1795 1797 1800 1802 1804 1807 1809 1811 -
1814 1816 1818 1821 1823 1825 1856 1858 1860 1863 1865 1867 1870 1872 1874 -
1877 1879 1881 1884 1886 1888 1920 TO 1922 1933 TO 1936 1938 1940 1942 1944 -
1946 1956 1958 1960 1962 1965 1967 1969 1971 1973 1975 1985 1987 1989 1991 -
1994 1996 1998 2000 2002 2004 2014 2016 2018 2020 2092 2109 2112 2116 -
2148 UNI Y 2.379
****0 x 1.165 x 6.81 = 0
641 645 649 657 1775 1792 1799 1806 1813 1820 1855 1862 1869 1876 UNI GX 0
************
684 685 687 689 690 692 694 697 1129 1235 1236 1238 1240 1928 1930 -
1932 UNI GZ 4.23
465 473 660 TO 667 1213 1215 1217 1219 1221 1223 1225 1227 1229 1231 1390 -
1394 1398 1402 1406 1410 1414 1418 1422 1426 1910 1914 1918 UNI GZ 2.54
180 652 1210 1362 1381 UNI GX 0.0001
177 187 TO 189 317 327 329 651 655 668 672 688 699 701 UNI Y 1.2
173 178 183 185 313 318 323 325 669 670 691 696 UNI Y 1.2
321 1233 1242 1430 UNI GX 0.001
321 652 1242 1362 UNI GZ 2.15
180 1210 1233 1381 1430 UNI GZ 1.3
1388 1389 1392 1393 1396 1397 1400 1401 1404 1405 1408 1409 1412 1413 1416 -
1417 1420 1421 1424 1425 1432 1710 1711 1715 UNI Y 11.5
1380 1382 1428 1429 UNI Y 5.5
***********
MEMBER LOAD
****0 x 1.166 x 7.21 = 0
80 1130 1275 1277 1279 UNI GX 0
****-0.3 x 1.166 x 7.21 = 2.522
11 24 28 29 37 39 46 TO 49 57 59 66 TO 69 77 87 TO 89 795 800 801 805 806 -
810 971 TO 974 2131 2134 2152 UNI Y 2.522
****-0.3 x 1.166 x 7.21 = 2.522
3 12 20 22 33 38 42 TO 45 53 58 62 TO 65 73 78 83 85 792 793 797 TO 799 802 -
803 TO 804 807 808 1828 1830 1832 1835 1837 1839 1842 1844 1846 1849 1851 -
1853 1948 1950 1952 1954 1977 1979 1981 1983 2006 2008 2010 2012 2121 2122 -
2125 2128 2155 UNI Y 2.522
****0 x 1.166 x 7.21 = 0
1827 1834 1841 1848 UNI GX 0
************WIND PARALLEL PRESSURE*********
LOAD 14 WPP-2
MEMBER LOAD
****-1 x 1.165 x 6.81 = -7.929
100 120 140 160 640 644 648 656 1146 1162 1178 1194 1264 1265 1267 1269 1271 -
1273 UNI GX -7.929
****-1.3 x 1.165 x 6.81 = 10.308
97 99 106 TO 109 117 119 126 TO 129 137 139 146 TO 149 157 159 166 TO 169 -
197 199 206 TO 209 217 219 226 TO 229 237 247 TO 249 257 266 267 269 277 -
286 287 289 297 306 307 309 638 639 642 643 646 647 815 816 820 821 825 826 -
830 831 835 836 840 TO 842 846 851 852 856 861 863 TO 865 975 TO 980 2086 -
2095 2101 2137 TO 2139 2144 UNI Y 10.308
****-1.3 x 1.165 x 6.81 = 10.308
93 98 102 TO 105 113 118 122 TO 125 133 138 142 TO 145 153 158 162 TO 165 -
193 198 202 TO 205 213 218 222 TO 225 233 238 243 245 253 258 262 TO 265 -
273 278 282 TO 285 293 298 302 TO 305 812 TO 814 817 TO 819 822 TO 824 827 -
828 TO 829 832 TO 834 837 TO 839 843 844 848 TO 850 853 TO 855 858 TO 860 -
1778 1780 1783 1786 1788 1790 1793 1795 1797 1800 1802 1804 1807 1809 1811 -
1814 1816 1818 1821 1823 1825 1856 1858 1860 1863 1865 1867 1870 1872 1874 -
1877 1879 1881 1884 1886 1888 1920 TO 1922 1933 TO 1936 1938 1940 1942 1944 -
1946 1956 1958 1960 1962 1965 1967 1969 1971 1973 1975 1985 1987 1989 1991 -
1994 1996 1998 2000 2002 2004 2014 2016 2018 2020 2092 2109 2112 2116 -
2148 UNI Y 10.308
****-1 x 1.165 x 6.81 = 7.929
641 645 649 657 1775 1792 1799 1806 1813 1820 1855 1862 1869 1876 UNI GX 7.929
********************
465 473 660 TO 667 1213 1215 1217 1219 1221 1223 1225 1227 1229 1231 1390 -
1394 1398 1402 1406 1410 1414 1418 1422 1426 1910 1914 1918 UNI GZ -7.61
684 685 687 689 690 692 694 697 1129 1235 1236 1238 1240 1928 1930 -
1932 UNI GZ 0.85
180 652 1210 1362 1381 UNI GX -4
177 187 TO 189 317 327 329 651 655 668 672 688 699 701 UNI Y 5.3
173 178 183 185 313 318 323 325 669 670 691 696 UNI Y 5.3
1785 UNI GX 4
180 1210 1233 1381 1430 UNI GZ -3.9
321 652 1242 1362 UNI GZ 0.45
1388 1389 1392 1393 1396 1397 1400 1401 1404 1405 1408 1409 1412 1413 1416 -
1417 1420 1421 1424 1425 1432 1710 1711 1715 UNI Y 11.5
1380 1382 1428 1429 UNI Y 5.5
**************
MEMBER LOAD
****-1 x 1.166 x 7.21 = -8.406
80 1130 1275 1277 1279 UNI GX -8.406
****-1.3 x 1.166 x 7.21 = 10.928
11 24 28 29 37 39 46 TO 49 57 59 66 TO 69 77 87 TO 89 795 800 801 805 806 -
810 971 TO 974 2131 2134 2152 UNI Y 10.928
****-1.3 x 1.166 x 7.21 = 10.928
3 12 20 22 33 38 42 TO 45 53 58 62 TO 65 73 78 83 85 792 793 797 TO 799 802 -
803 TO 804 807 808 1828 1830 1832 1835 1837 1839 1842 1844 1846 1849 1851 -
1853 1948 1950 1952 1954 1977 1979 1981 1983 2006 2008 2010 2012 2121 2122 -
2125 2128 2155 UNI Y 10.928
****-1 x 1.166 x 7.21 = 8.406
1827 1834 1841 1848 UNI GX 8.406
************WIND PARALLEL SUCTION********
LOAD 15 WPS-2
MEMBER LOAD
****0 x 1.165 x 6.81 = 0
100 120 140 160 640 644 648 656 1146 1162 1178 1194 1264 1265 1267 1269 1271 -
1273 UNI GX 0
****-0.3 x 1.165 x 6.81 = 2.379
97 99 106 TO 109 117 119 126 TO 129 137 139 146 TO 149 157 159 166 TO 169 -
197 199 206 TO 209 217 219 226 TO 229 237 247 TO 249 257 266 267 269 277 -
286 287 289 297 306 307 309 638 639 642 643 646 647 815 816 820 821 825 826 -
830 831 835 836 840 TO 842 846 851 852 856 861 863 TO 865 975 TO 980 2086 -
2095 2101 2137 TO 2139 2144 UNI Y 2.379
****-0.3 x 1.165 x 6.81 = 2.379
93 98 102 TO 105 113 118 122 TO 125 133 138 142 TO 145 153 158 162 TO 165 -
193 198 202 TO 205 213 218 222 TO 225 233 238 243 245 253 258 262 TO 265 -
273 278 282 TO 285 293 298 302 TO 305 812 TO 814 817 TO 819 822 TO 824 827 -
828 TO 829 832 TO 834 837 TO 839 843 844 848 TO 850 853 TO 855 858 TO 860 -
1778 1780 1783 1786 1788 1790 1793 1795 1797 1800 1802 1804 1807 1809 1811 -
1814 1816 1818 1821 1823 1825 1856 1858 1860 1863 1865 1867 1870 1872 1874 -
1877 1879 1881 1884 1886 1888 1920 TO 1922 1933 TO 1936 1938 1940 1942 1944 -
1946 1956 1958 1960 1962 1965 1967 1969 1971 1973 1975 1985 1987 1989 1991 -
1994 1996 1998 2000 2002 2004 2014 2016 2018 2020 2092 2109 2112 2116 -
2148 UNI Y 2.379
****0 x 1.165 x 6.81 = 0
641 645 649 657 1775 1792 1799 1806 1813 1820 1855 1862 1869 1876 UNI GX 0
465 473 660 TO 667 1213 1215 1217 1219 1221 1223 1225 1227 1229 1231 1390 -
1394 1398 1402 1406 1410 1414 1418 1422 1426 1910 1914 1918 UNI GZ -4.23
684 685 687 689 690 692 694 697 1129 1235 1236 1238 1240 1928 1930 -
1932 UNI GZ -2.54
180 652 1210 1362 1381 1785 1883 UNI GX 0.001
177 187 TO 189 317 327 329 651 655 668 672 688 699 701 UNI Y 1.2
173 178 183 185 313 318 323 325 669 670 691 696 UNI Y 1.2
321 1233 1242 1430 UNI GX 0.001
180 1210 1233 1381 1430 UNI GZ -2.2
188 321 652 1242 1362 UNI GZ -1.6
1388 1389 1392 1393 1396 1397 1400 1401 1404 1405 1408 1409 1412 1413 1416 -
1417 1420 1421 1424 1425 1432 1710 1711 1715 UNI Y 11.5
1380 1382 1428 1429 UNI Y 5.5
MEMBER LOAD
****0 x 1.166 x 7.21 = 0
80 1130 1275 1277 1279 UNI GX 0
****-0.3 x 1.166 x 7.21 = 2.522
11 24 28 29 37 39 46 TO 49 57 59 66 TO 69 77 87 TO 89 795 800 801 805 806 -
810 971 TO 974 2131 2134 2152 UNI Y 2.522
****-0.3 x 1.166 x 7.21 = 2.522
3 12 20 22 33 38 42 TO 45 53 58 62 TO 65 73 78 83 85 792 793 797 TO 799 802 -
803 TO 804 807 808 1828 1830 1832 1835 1837 1839 1842 1844 1846 1849 1851 -
1853 1948 1950 1952 1954 1977 1979 1981 1983 2006 2008 2010 2012 2121 2122 -
2125 2128 2155 UNI Y 2.522
****0 x 1.166 x 7.21 = 0
1827 1834 1841 1848 UNI GX 0
LOAD 16 LOADTYPE Live  TITLE MEZZ LIVE LOAD
MEMBER LOAD
31 51 71 91 111 211 231 251 271 291 1433 TO 1437 1441 TO 1445 2167 -
2169 UNI GY -28.27
171 1212 1214 1216 1218 1220 1222 1224 1226 1228 1230 1232 1234 1237 1239 -
1241 1243 1245 TO 1247 1255 1520 1522 1524 1526 1528 1530 1532 1534 1536 -
1538 1540 1541 UNI GY -14.135
131 151 1147 TO 1149 1151 TO 1154 1156 TO 1159 1161 1163 TO 1165 -
1167 TO 1170 1172 TO 1175 1177 1179 TO 1181 1183 TO 1186 1188 TO 1191 1193 -
1195 TO 1197 1199 TO 1202 1204 TO 1207 1209 1438 1439 UNI GY -26.71
1249 1251 1253 UNI GY -25.56
1256 1257 1765 2141 2156 2157 UNI GY -12.5
*******************************************************************************
LOAD 17 LOADTYPE Crane Hook  TITLE CR1L
LOAD 18 LOADTYPE Crane Hook  TITLE CR1R
LOAD 19 LOADTYPE Crane Hook  TITLE CR2L
LOAD 20 LOADTYPE Crane Hook  TITLE CR2R
*******************************************************************************
*********************LOAD COMBINATION START************************************
**************************STRENGTH*********************************************
LOAD COMB 100 1DEAD+1COLL
5 1.0 7 1.0 
LOAD COMB 101 1DEAD+1RLIVE+1COLL
5 1.0 6 1.0 7 1.0 
LOAD COMB 102 1DEAD+1LIVE+1COLL
5 1.0 16 1.0 7 1.0 
LOAD COMB 103 1DEAD+0.75LIVE+0.75RLIVE+1COLL
5 1.0 16 0.75 6 0.75 7 1.0 
LOAD COMB 104 1DEAD+1WIND+1COLL (1)
5 1.0 8 1.0 7 1.0 
LOAD COMB 105 1DEAD+1WIND+1COLL (2)
5 1.0 9 1.0 7 1.0 
LOAD COMB 106 1DEAD+1WIND+1COLL (3)
5 1.0 10 1.0 7 1.0 
LOAD COMB 107 1DEAD+1WIND+1COLL (4)
5 1.0 11 1.0 7 1.0 
LOAD COMB 108 1DEAD+1WIND+1COLL (5)
5 1.0 12 1.0 7 1.0 
LOAD COMB 109 1DEAD+1WIND+1COLL (6)
5 1.0 13 1.0 7 1.0 
LOAD COMB 110 1DEAD+1WIND+1COLL (7)
5 1.0 14 1.0 7 1.0 
LOAD COMB 111 1DEAD+1WIND+1COLL (8)
5 1.0 15 1.0 7 1.0 
LOAD COMB 112 1DEAD+0.7SEISMIC+1COLL (1)
5 1.0 1 0.7 7 1.0 
LOAD COMB 113 1DEAD+0.7SEISMIC+1COLL (2)
5 1.0 2 0.7 7 1.0 
LOAD COMB 114 1DEAD+0.7SEISMIC+1COLL (3)
5 1.0 3 0.7 7 1.0 
LOAD COMB 115 1DEAD+0.7SEISMIC+1COLL (4)
5 1.0 4 0.7 7 1.0 
LOAD COMB 116 0.6DEAD+1WIND (1)
5 0.6 8 1.0 
LOAD COMB 117 0.6DEAD+1WIND (2)
5 0.6 9 1.0 
LOAD COMB 118 0.6DEAD+1WIND (3)
5 0.6 10 1.0 
LOAD COMB 119 0.6DEAD+1WIND (4)
5 0.6 11 1.0 
LOAD COMB 120 0.6DEAD+1WIND (5)
5 0.6 12 1.0 
LOAD COMB 121 0.6DEAD+1WIND (6)
5 0.6 13 1.0 
LOAD COMB 122 0.6DEAD+1WIND (7)
5 0.6 14 1.0 
LOAD COMB 123 0.6DEAD+1WIND (8)
5 0.6 15 1.0 
LOAD COMB 124 0.6DEAD+0.7SEISMIC+0.6COLL (1)
5 0.6 1 0.7 7 0.6 
LOAD COMB 125 0.6DEAD+0.7SEISMIC+0.6COLL (2)
5 0.6 2 0.7 7 0.6 
LOAD COMB 126 0.6DEAD+0.7SEISMIC+0.6COLL (3)
5 0.6 3 0.7 7 0.6 
LOAD COMB 127 0.6DEAD+0.7SEISMIC+0.6COLL (4)
5 0.6 4 0.7 7 0.6 
LOAD COMB 128 1DEAD+0.75LIVE+0.75RLIVE+0.75WIND+1COLL (1)
5 1.0 16 0.75 6 0.75 8 0.75 7 1.0 
LOAD COMB 129 1DEAD+0.75LIVE+0.75RLIVE+0.75WIND+1COLL (2)
5 1.0 16 0.75 6 0.75 9 0.75 7 1.0 
LOAD COMB 130 1DEAD+0.75LIVE+0.75RLIVE+0.75WIND+1COLL (3)
5 1.0 16 0.75 6 0.75 10 0.75 7 1.0 
LOAD COMB 131 1DEAD+0.75LIVE+0.75RLIVE+0.75WIND+1COLL (4)
5 1.0 16 0.75 6 0.75 11 0.75 7 1.0 
LOAD COMB 132 1DEAD+0.75LIVE+0.75RLIVE+0.75WIND+1COLL (5)
5 1.0 16 0.75 6 0.75 12 0.75 7 1.0 
LOAD COMB 133 1DEAD+0.75LIVE+0.75RLIVE+0.75WIND+1COLL (6)
5 1.0 16 0.75 6 0.75 13 0.75 7 1.0 
LOAD COMB 134 1DEAD+0.75LIVE+0.75RLIVE+0.75WIND+1COLL (7)
5 1.0 16 0.75 6 0.75 14 0.75 7 1.0 
LOAD COMB 135 1DEAD+0.75LIVE+0.75RLIVE+0.75WIND+1COLL (8)
5 1.0 16 0.75 6 0.75 15 0.75 7 1.0 
LOAD COMB 136 1DEAD+0.75LIVE+0.75RLIVE+0.525SEISMIC+1COLL (1)
5 1.0 16 0.75 6 0.75 1 0.525 7 1.0 
LOAD COMB 137 1DEAD+0.75LIVE+0.75RLIVE+0.525SEISMIC+1COLL (2)
5 1.0 16 0.75 6 0.75 2 0.525 7 1.0 
LOAD COMB 138 1DEAD+0.75LIVE+0.75RLIVE+0.525SEISMIC+1COLL (3)
5 1.0 16 0.75 6 0.75 3 0.525 7 1.0 
LOAD COMB 139 1DEAD+0.75LIVE+0.75RLIVE+0.525SEISMIC+1COLL (4)
5 1.0 16 0.75 6 0.75 4 0.525 7 1.0 
LOAD COMB 140 1DEAD+1LIVE+1COLL+1CRANE(1)
5 1.0 16 1.0 7 1.0 17 1.0 
LOAD COMB 141 1DEAD+1LIVE+1COLL+1CRANE(2)
5 1.0 16 1.0 7 1.0 18 1.0 
LOAD COMB 142 1DEAD+1LIVE+1COLL+1CRANE(3)
5 1.0 16 1.0 7 1.0 19 1.0 
LOAD COMB 143 1DEAD+1LIVE+1COLL+1CRANE(4)
5 1.0 16 1.0 7 1.0 20 1.0 
LOAD COMB 144 1DEAD+0.75LIVE+1COLL+0.75CRANE(1)
5 1.0 16 0.75 7 1.0 17 0.75 
LOAD COMB 145 1DEAD+0.75LIVE+1COLL+0.75CRANE(2)
5 1.0 16 0.75 7 1.0 18 0.75 
LOAD COMB 146 1DEAD+0.75LIVE+1COLL+0.75CRANE(3)
5 1.0 16 0.75 7 1.0 19 0.75 
LOAD COMB 147 1DEAD+0.75LIVE+1COLL+0.75CRANE(4)
5 1.0 16 0.75 7 1.0 20 0.75 
LOAD COMB 148 1DEAD+0.75LIVE+0.75WIND+1COLL+0.75CRANE(1)
5 1.0 16 0.75 8 0.75 7 1.0 17 0.75 
LOAD COMB 149 1DEAD+0.75LIVE+0.75WIND+1COLL+0.75CRANE(2)
5 1.0 16 0.75 9 0.75 7 1.0 17 0.75 
LOAD COMB 150 1DEAD+0.75LIVE+0.75WIND+1COLL+0.75CRANE(3)
5 1.0 16 0.75 10 0.75 7 1.0 17 0.75 
LOAD COMB 151 1DEAD+0.75LIVE+0.75WIND+1COLL+0.75CRANE(4)
5 1.0 16 0.75 11 0.75 7 1.0 17 0.75 
LOAD COMB 152 1DEAD+0.75LIVE+0.75WIND+1COLL+0.75CRANE(5)
5 1.0 16 0.75 12 0.75 7 1.0 17 0.75 
LOAD COMB 153 1DEAD+0.75LIVE+0.75WIND+1COLL+0.75CRANE(6)
5 1.0 16 0.75 13 0.75 7 1.0 17 0.75 
LOAD COMB 154 1DEAD+0.75LIVE+0.75WIND+1COLL+0.75CRANE(7)
5 1.0 16 0.75 14 0.75 7 1.0 17 0.75 
LOAD COMB 155 1DEAD+0.75LIVE+0.75WIND+1COLL+0.75CRANE(8)
5 1.0 16 0.75 15 0.75 7 1.0 17 0.75 
LOAD COMB 156 1DEAD+0.75LIVE+0.75WIND+1COLL+0.75CRANE(9)
5 1.0 16 0.75 8 0.75 7 1.0 18 0.75 
LOAD COMB 157 1DEAD+0.75LIVE+0.75WIND+1COLL+0.75CRANE(10)
5 1.0 16 0.75 9 0.75 7 1.0 18 0.75 
LOAD COMB 158 1DEAD+0.75LIVE+0.75WIND+1COLL+0.75CRANE(11)
5 1.0 16 0.75 10 0.75 7 1.0 18 0.75 
LOAD COMB 159 1DEAD+0.75LIVE+0.75WIND+1COLL+0.75CRANE(12)
5 1.0 16 0.75 11 0.75 7 1.0 18 0.75 
LOAD COMB 160 1DEAD+0.75LIVE+0.75WIND+1COLL+0.75CRANE(13)
5 1.0 16 0.75 12 0.75 7 1.0 18 0.75 
LOAD COMB 161 1DEAD+0.75LIVE+0.75WIND+1COLL+0.75CRANE(14)
5 1.0 16 0.75 13 0.75 7 1.0 18 0.75 
LOAD COMB 162 1DEAD+0.75LIVE+0.75WIND+1COLL+0.75CRANE(15)
5 1.0 16 0.75 14 0.75 7 1.0 18 0.75 
LOAD COMB 163 1DEAD+0.75LIVE+0.75WIND+1COLL+0.75CRANE(16)
5 1.0 16 0.75 15 0.75 7 1.0 18 0.75 
LOAD COMB 164 1DEAD+0.75LIVE+0.75WIND+1COLL+0.75CRANE(17)
5 1.0 16 0.75 8 0.75 7 1.0 19 0.75 
LOAD COMB 165 1DEAD+0.75LIVE+0.75WIND+1COLL+0.75CRANE(18)
5 1.0 16 0.75 9 0.75 7 1.0 19 0.75 
LOAD COMB 166 1DEAD+0.75LIVE+0.75WIND+1COLL+0.75CRANE(19)
5 1.0 16 0.75 10 0.75 7 1.0 19 0.75 
LOAD COMB 167 1DEAD+0.75LIVE+0.75WIND+1COLL+0.75CRANE(20)
# ... 25 like lines cut
LOAD COMB 180 1DEAD+0.75LIVE+0.525SEISMIC+1COLL+0.75CRANE(1)
5 1.0 16 0.75 1 0.525 7 1.0 17 0.75 
LOAD COMB 181 1DEAD+0.75LIVE+0.525SEISMIC+1COLL+0.75CRANE(2)
5 1.0 16 0.75 2 0.525 7 1.0 17 0.75 
LOAD COMB 182 1DEAD+0.75LIVE+0.525SEISMIC+1COLL+0.75CRANE(3)
5 1.0 16 0.75 3 0.525 7 1.0 17 0.75 
LOAD COMB 183 1DEAD+0.75LIVE+0.525SEISMIC+1COLL+0.75CRANE(4)
5 1.0 16 0.75 4 0.525 7 1.0 17 0.75 
LOAD COMB 184 1DEAD+0.75LIVE+0.525SEISMIC+1COLL+0.75CRANE(5)
5 1.0 16 0.75 1 0.525 7 1.0 18 0.75 
LOAD COMB 185 1DEAD+0.75LIVE+0.525SEISMIC+1COLL+0.75CRANE(6)
5 1.0 16 0.75 2 0.525 7 1.0 18 0.75 
LOAD COMB 186 1DEAD+0.75LIVE+0.525SEISMIC+1COLL+0.75CRANE(7)
5 1.0 16 0.75 3 0.525 7 1.0 18 0.75 
LOAD COMB 187 1DEAD+0.75LIVE+0.525SEISMIC+1COLL+0.75CRANE(8)
5 1.0 16 0.75 4 0.525 7 1.0 18 0.75 
LOAD COMB 188 1DEAD+0.75LIVE+0.525SEISMIC+1COLL+0.75CRANE(9)
5 1.0 16 0.75 1 0.525 7 1.0 19 0.75 
LOAD COMB 189 1DEAD+0.75LIVE+0.525SEISMIC+1COLL+0.75CRANE(10)
5 1.0 16 0.75 2 0.525 7 1.0 19 0.75 
LOAD COMB 190 1DEAD+0.75LIVE+0.525SEISMIC+1COLL+0.75CRANE(11)
5 1.0 16 0.75 3 0.525 7 1.0 19 0.75 
LOAD COMB 191 1DEAD+0.75LIVE+0.525SEISMIC+1COLL+0.75CRANE(12)
5 1.0 16 0.75 4 0.525 7 1.0 19 0.75 
LOAD COMB 192 1DEAD+0.75LIVE+0.525SEISMIC+1COLL+0.75CRANE(13)
5 1.0 16 0.75 1 0.525 7 1.0 20 0.75 
LOAD COMB 193 1DEAD+0.75LIVE+0.525SEISMIC+1COLL+0.75CRANE(14)
5 1.0 16 0.75 2 0.525 7 1.0 20 0.75 
LOAD COMB 194 1DEAD+0.75LIVE+0.525SEISMIC+1COLL+0.75CRANE(15)
5 1.0 16 0.75 3 0.525 7 1.0 20 0.75 
LOAD COMB 195 1DEAD+0.75LIVE+0.525SEISMIC+1COLL+0.75CRANE(16)
5 1.0 16 0.75 4 0.525 7 1.0 20 0.75 
**************END OF LOAD COMBINATION******************************************
PERFORM ANALYSIS
*******************************************************************************
DEFINE ENVELOPE
100 TO 195 ENVELOPE 1 TYPE STRENGTH
*
END DEFINE ENVELOPE
LOAD LIST ENV 1
*******************************************************************************
*******************************************************************************
*******************************************************************************
PARAMETER 1
CODE AISC UNIFIED 2005
METHOD ASD
BEAM 1 MEMB 1 3 4 11 12 20 24 28 TO 39 42 TO 59 62 TO 74 77 78 80 83 85 87 -
88 TO 100 102 TO 120 122 TO 140 142 TO 160 162 TO 178 180 183 185 187 TO 189 -
192 TO 195 197 TO 199 202 TO 215 217 TO 219 222 TO 234 237 238 243 245 247 -
248 TO 258 262 TO 267 269 TO 278 282 TO 287 289 TO 298 302 TO 307 309 312 -
313 TO 318 321 323 325 327 329 465 467 TO 469 473 475 TO 477 482 TO 485 498 -
499 TO 500 502 504 512 638 TO 649 651 TO 653 655 TO 657 659 TO 670 672 675 -
676 TO 685 687 TO 692 694 TO 697 699 TO 702 793 795 797 TO 808 810 -
812 TO 844 846 848 TO 856 858 TO 861 863 TO 866 971 TO 980 1129 1130 1144 -
1146 TO 1258 1262 1264 1265 1267 1269 1271 1273 1275 1277 1279 1362 1364 -
1365 1380 TO 1383 1386 1388 TO 1445 1460 TO 1495 1497 TO 1541 1549 1551 -
1552 1554 1555 1559 1573 1574 1576 1578 1584 TO 1587 1590 1594 1595 1597 -
1599 1710 1711 1714 1715 1759 1762 1765 1774 1775 1778 1780 1783 TO 1786 -
1788 1790 TO 1793 1795 1797 TO 1800 1802 1804 TO 1807 1809 1811 TO 1814 -
1816 1818 TO 1821 1823 1825 TO 1828 1830 1832 TO 1835 1837 1839 TO 1842 -
1844 1846 TO 1849 1851 1853 TO 1856 1858 1860 TO 1863 1865 1867 TO 1870 -
1872 1874 TO 1877 1879 1881 TO 1884 1886 1888 1908 1910 1912 1914 1916 1918
BEAM 1 MEMB 2141
BEAM 1 MEMB 2148 2155 TO 2159 2165 2167 2169 2170
BEAM 1 MEMB 1927 TO 1932 2093 2094 2096 2107 2108 2110 2113 TO 2115 -
2117 TO 2119 2123 2124 2132 2133 2140 2142 2143 2146 2150 2151
BEAM 1 MEMB 2094 2095 2101 2107 TO 2116 2125 2128 2131 2134 2137 TO 2139 -
2144 2152
BEAM 1 MEMB 1914 1916 1918 1920 TO 1922 1927 TO 1936 1938 1940 2086 2092 -
2096 2102 2140 2142 2143 2145 TO 2147
BEAM 1 MEMB 2076 2078 2080
BEAM 1 MEMB 1942 1944 1946 1948
BEAM 1 MEMB 1950 1952 1954 1956 1958 1960 1962 1965 1967 1969 1971 1973 1975 -
1977 1979 1981 1983 1985 1987 1989 1991 1994 1996 1998 2000 2002 2004 2006 -
2008 2010 2012 2014 2016 2018 2020
CB 0 MEMB 1 3 4 11 12 20 22 24 28 TO 39 42 TO 59 62 TO 74 77 78 80 83 85 87 -
88 TO 100 102 TO 120 122 TO 140 142 TO 160 162 TO 178 180 183 185 187 TO 189 -
192 TO 195 197 TO 199 202 TO 215 217 TO 219 222 TO 234 237 238 243 245 247 -
248 TO 258 262 TO 267 269 TO 278 282 TO 287 289 TO 298 302 TO 307 309 312 -
313 TO 318 321 323 325 327 329 465 467 TO 469 473 475 TO 477 482 TO 485 498 -
499 TO 500 502 504 512 638 TO 649 651 TO 653 655 TO 657 659 TO 670 672 675 -
676 TO 685 687 TO 692 694 TO 697 699 TO 702 792 793 795 797 TO 808 810 812 -
813 TO 844 846 848 TO 856 858 TO 861 863 TO 866 971 TO 980 1129 1130 1144 -
1146 TO 1258 1262 1264 1265 1267 1269 1271 1273 1275 1277 1279 1362 1364 -
1365 1380 TO 1383 1386 1388 TO 1445 1460 TO 1495 1497 TO 1541 1549 1551 -
1552 1554 1555 1559 1573 1574 1576 1578 1584 TO 1587 1590 1594 1595 1597 -
1599 1710 1711 1714 1715 1759 1762 1765 1774 1775 1778 1780 1783 TO 1786 -
1788 1790 TO 1793 1795 1797 TO 1800 1802 1804 TO 1807 1809 1811 TO 1814 -
1816 1818 TO 1821 1823 1825 TO 1828 1830 1832 TO 1835 1837 1839 TO 1842 -
1844 1846 TO 1849 1851 1853 TO 1856 1858 1860 TO 1863 1865 1867 TO 1870 -
1872 1874 TO 1877 1879 1881 TO 1884 1886 1888 1908 1910 1912 1914
CB 0 MEMB 2141 2148 2155 TO 2159 2165 2167 2169 2170
CB 0 MEMB 1916 1918 1927 TO 1932 2093 2094 2096 2107 2108 2110 2113 TO 2115 -
2117 TO 2119 2123 2124 2132 2133 2140 2142 2143 2146 2150 2151
CB 0 MEMB 1914 2086 2092 TO 2095 2101 2107 TO 2116 2121 2122 2125 2128 2131 -
2134 2137 TO 2139 2144 2152
CB 0 MEMB 1916 1918 1920 TO 1922 1927 TO 1936 1938 1940 2086 2092 2096 2102 -
2140 2142 2143 2145 TO 2147
CB 0 MEMB 2076 2078 2080
CB 0 MEMB 1942 1944 1946 1948
CB 0 MEMB 1950 1952 1954 1956 1958 1960 1962 1965 1967 1969 1971 1973 1975 -
1977 1979 1981 1983 1985 1987 1989 1991 1994 1996 1998 2000 2002 2004 2006 -
2008 2010 2012 2014 2016 2018 2020
FYLD 350000 MEMB 1 3 4 11 12 20 22 24 28 TO 39 42 TO 59 62 TO 74 77 78 80 -
83 85 87 TO 100 102 TO 120 122 TO 140 142 TO 160 162 TO 178 180 183 185 187 -
188 TO 189 192 TO 195 197 TO 199 202 TO 215 217 TO 219 222 TO 234 237 238 -
243 245 247 TO 258 262 TO 267 269 TO 278 282 TO 287 289 TO 298 302 TO 307 -
309 312 TO 318 321 323 325 327 329 465 467 TO 469 473 475 TO 477 482 TO 485 -
498 TO 500 502 504 512 638 TO 649 651 TO 653 655 TO 657 659 TO 670 672 675 -
676 TO 685 687 TO 692 694 TO 697 699 TO 702 792 793 795 797 TO 808 810 812 -
813 TO 844 846 848 TO 856 858 TO 861 863 TO 866 971 TO 980 1129 1130 1144 -
1146 TO 1258 1262 1264 1265 1267 1269 1271 1273 1275 1277 1279 1362 1364 -
1365 1380 TO 1382 1386 1388 TO 1390 1392 TO 1394 1396 TO 1398 1400 TO 1402 -
1404 TO 1406 1408 TO 1410 1412 TO 1414 1416 TO 1418 1420 TO 1422 -
1424 TO 1426 1428 TO 1430 1432 TO 1445 1460 TO 1495 1497 TO 1541 1549 1551 -
1552 1554 1555 1559 1573 1574 1576 1578 1584 TO 1587 1590 1594 1595 1597 -
1599 1710 1711 1715 1759 1762 1765 1774 1775 1778 1780 1783 TO 1786 1788 -
1790 TO 1793 1795 1797 TO 1800 1802 1804 TO 1807 1809 1811 TO 1814 1816 -
1818 TO 1821 1823 1825 TO 1828 1830 1832 TO 1835 1840 1841
FYLD 350000 MEMB 2141 2148 2155 TO 2159 2165 2167 2169 2170
FYLD 350000 MEMB 1847 1848 1854 1855 1861 1862 1868 1869 1875 1876 1882 1883 -
1908 1910 1912 1914 1916 1918 1927 TO 1932 2093 2094 2096 2107 2108 2110 -
2113 TO 2115 2117 TO 2119 2123 2124 2132 2133 2140 2142 2143 2146 2150 2151
FYLD 350000 MEMB 2086 2092 TO 2095 2101 2107 TO 2116 2121 2122 2125 2128 -
2131 2134 2137 TO 2139 2144 2152
FYLD 350000 MEMB 1837 1839 2086 2092 2096 2102 2140 2142 2143 2145 TO 2147
FYLD 350000 MEMB 2076 2078 2080
FYLD 350000 MEMB 1840 TO 1842 1844 1846
FYLD 350000 MEMB 1847 TO 1849 1851 1853 TO 1856 1858 1860 TO 1863 1865 1867 -
1868 TO 1870 1872 1874 TO 1877 1879 1881 TO 1884 1886 1888 1908 1910 1912 -
1914 1916 1918 1920 TO 1922 1927 TO 1936 1938 1940 1942 1944 1946 1948 1950 -
1952 1954 1956 1958 1960 1962 1965 1967 1969 1971 1973 1975 1977 1979 1981 -
1983 1985 1987 1989 1991 1994 1996 1998 2000 2002 2004 2006 2008 2010 2012 -
2014 2016 2018 2020
FU 490000 MEMB 1 3 4 11 12 20 22 24 28 TO 39 42 TO 59 62 TO 74 77 78 80 83 -
85 87 TO 100 102 TO 120 122 TO 140 142 TO 160 162 TO 178 180 183 185 187 -
188 TO 189 192 TO 195 197 TO 199 202 TO 215 217 TO 219 222 TO 234 237 238 -
243 245 247 TO 258 262 TO 267 269 TO 278 282 TO 287 289 TO 298 302 TO 307 -
309 312 TO 318 321 323 325 327 329 465 467 TO 469 473 475 TO 477 482 TO 485 -
498 TO 500 502 504 512 638 TO 649 651 TO 653 655 TO 657 659 TO 670 672 675 -
676 TO 685 687 TO 692 694 TO 697 699 TO 702 792 793 795 797 TO 808 810 812 -
813 TO 844 846 848 TO 856 858 TO 861 863 TO 866 971 TO 980 1129 1130 1144 -
1146 TO 1258 1262 1264 1265 1267 1269 1271 1273 1275 1277 1279 1362 1364 -
1365 1380 TO 1382 1386 1388 TO 1390 1392 TO 1394 1396 TO 1398 1400 TO 1402 -
1404 TO 1406 1408 TO 1410 1412 TO 1414 1416 TO 1418 1420 TO 1422 -
1424 TO 1426 1428 TO 1430 1432 TO 1445 1460 TO 1495 1497 TO 1541 1549 1551 -
1552 1554 1555 1559 1573 1574 1576 1578 1584 TO 1587 1590 1594 1595 1597 -
1599 1710 1711 1715 1759 1762 1765 1774 1775 1778 1780 1783 TO 1786 1788 -
1790 TO 1793 1795 1797 TO 1800 1802 1804 TO 1807 1809 1811 TO 1814 1816 -
1818 TO 1821 1823 1825 TO 1828 1830 1832 TO 1835 1840 1841
FU 490000 MEMB 2141 2148 2155 TO 2159 2165 2167 2169 2170
FU 490000 MEMB 1847 1848 1854 1855 1861 1862 1868 1869 1875 1876 1882 1883 -
1908 1910 1912 1914 1916 1918 1927 TO 1932 2093 2094 2096 2107 2108 2110 -
2113 TO 2115 2117 TO 2119 2123 2124 2132 2133 2140 2142 2143 2146 2150 2151
FU 490000 MEMB 2086 2092 TO 2095 2101 2107 TO 2116 2121 2122 2125 2128 2131 -
2134 2137 TO 2139 2144 2152
FU 490000 MEMB 1837 1839 1840 2086 2092 2096 2102 2140 2142 2143 2145 TO 2147
FU 490000 MEMB 2076 2078 2080
FU 490000 MEMB 1841 1842 1844 1846
FU 490000 MEMB 1847 TO 1849 1851 1853 TO 1856 1858 1860 TO 1863 1865 1867 -
1868 TO 1870 1872 1874 TO 1877 1879 1881 TO 1884 1886 1888 1908 1910 1912 -
1914 1916 1918 1920 TO 1922 1927 TO 1936 1938 1940 1942 1944 1946 1948 1950 -
1952 1954 1956 1958 1960 1962 1965 1967 1969 1971 1973 1975 1977 1979 1981 -
1983 1985 1987 1989 1991 1994 1996 1998 2000 2002 2004 2006 2008 2010 2012 -
2014 2016 2018 2020
KZ 1.2 MEMB 1 4 32 34 TO 36 52 54 TO 56 72 74 80 92 94 TO 96 100 112 -
114 TO 116 120 132 134 TO 136 140 152 154 TO 156 160 172 174 180 192 194 -
195 212 214 215 232 234 252 254 TO 256 272 274 TO 276 292 294 TO 296 312 -
314 321 640 641 644 645 648 649 652 656 675 684 700 702 866 1130 1144 1146 -
1150 1155 1160 1162 1166 1171 1176 1178 1182 1187 1192 1194 1198 1203 1208 -
1210 1233 1242 1244 1248 1250 1252 1254 1258 1262 1264 1265 1267 1269 1271 -
1273 1275 1277 1279 1362 1364 1365 1381 1430 1774 1775 1784 1785 1791 1792 -
1798 1799 1805 1806 1812 1813 1819 1820 1826 1827 1833 1834 1840 1841 1847 -
1848 1854 1855 1861 1862 1868 1869 1875 1876 1882 1883
KZ 2 MEMB 30 50 70 90 110 130 150 170 175 176 210 230 250 270 290 315 316 -
465 468 469 473 475 TO 477 482 TO 485 498 TO 500 502 504 512 653 660 TO 667 -
676 TO 683 685 687 689 690 692 694 695 697 1129 1213 1215 1217 1219 1221 -
1223 1225 1227 1229 1231 1235 1236 1238 1240 1388 TO 1390 1392 TO 1394 1396 -
1397 TO 1398 1400 TO 1402 1404 TO 1406 1408 TO 1410 1412 TO 1414 -
1416 TO 1418 1420 TO 1422 1424 TO 1426 1460 TO 1495 1497 TO 1519 1521 1523 -
1525 1527 1529 1531 1533 1535 1537 1539 1549 1551 1552 1554 1555 1559 1573 -
1574 1576 1578 1584 TO 1586 1590 1594 1597 1599 1710 1711 1759 1762 1908 -
1910 1912 1914 1916 1918 1927 TO 1932 2076 2078 2080 2093 2094 2096 2102 -
2107 2108 2110 2111 2113 TO 2115 2117 TO 2120 2123 2124 2132 2133 2140 2142 -
2143 2145 TO 2147 2150 2151 2153 2154 2158 2159 2165 2170
LZ 9.5 MEMB 1 4 32 34 52 54 72 74 80 92 94 100 112 114 120 132 134 140 152 -
154 160 172 174 180 192 194 212 214 234 254 274 294 314 321 1130 1144 1146 -
1160 1162 1176 1178 1192 1194 1208 1210 1233 1242 1248 1250 1252 1254 1271 -
1273 1275 1277 1279 1364 1365 1381 1430
LZ 15.5 MEMB 232 252 272 292 312 640 644 648 652 656 1264 1265 1267 1269 1362
LZ 16.945 MEMB 653 675 676 684 685 700 702 866
LZ 6 MEMB 641 645 649 657 1380 1382 1388 1389 1392 1393 1396 1397 1400 1401 -
1404 1405 1408 1409 1412 1413 1416 1417 1420 1421 1424 1425 1428 1429 1710 -
1711
LZ 29.195 MEMB 33 39 42 43 45 47 TO 49 53 59 62 63 65 67 TO 69 93 99 102 103 -
105 107 TO 109 113 119 122 123 125 127 TO 129 133 139 142 143 145 -
147 TO 149 153 159 162 163 165 167 TO 169 193 199 202 203 205 207 TO 209 -
213 219 222 223 225 227 TO 229 253 262 263 265 273 282 283 285 293 302 303 -
305 797 799 801 802 804 806 812 814 816 817 819 821 822 824 826 827 829 831 -
832 834 836 837 839 841 848 850 853 855 858 860 972 973 975 TO 980
LZ 8.1 MEMB 1774 1775 1784 1785 1791 1792 1798 1799 1805 1806 1812 1813 1819 -
1820 1826 1827 1833 1834 1840 1841 1847 1848 1854 1855 1861 1862 1868 1869 -
1875 1876 1882 1883
LZ 28.1 MEMB 1778 1780 1783 1786 1788 1790 1793 1795 1797 1800 1802 1804 -
1807 1809 1811 1814 1816 1818 1821 1823 1825 1828 1830 1832 1835 1837 1839 -
1842 1844 1846 1849 1851 1853 1856 1858 1860 1863 1865 1867 1870 1872 1874 -
1877 1879 1881 1884 1886 1888 1920 TO 1922 1933 TO 1936 1938 1940 1942 1944 -
1946 1948 1950 1952 1954 1956 1958 1960 1962 1965 1967 1969 1971 1973 1975 -
1977 1979 1981 1983 1985 1987 1989 1991 1994 1996 1998 2000 2002 2004 2006 -
2008 2010 2012 2014 2016 2018 2020
LZ 12.405 MEMB 35 36 55 56 95 96 115 116 135 136 155 156 175 176 195 215 255 -
256 275 276 295 296 315 316 465 469 473 482 485 661 665 677 681 687 694 -
1129 1150 1155 1166 1171 1182 1187 1198 1203 1215 1217 1225 1227 1235 1236 -
1244 1258 1262 1394 1398 1414 1418 1497 TO 1499 1502 1503 1507 1512 1516 -
1523 1525 1533 1535 1549 1551 1552 1576 1584 TO 1586 1597 1759 2093 2094 -
2107 2108 2123 2124
LZ 13.87 MEMB 475 TO 477 662 TO 664 678 TO 680 689 690 692 1219 1221 1223 -
1402 1406 1410 1504 TO 1506 1513 TO 1515 1527 1529 1531 1559 1578 1590 1599 -
1762 1908 1910 1912 1914 1916 1918 1927 TO 1932 2140 2142 2143 2145 TO 2147 -
2150 2151 2153 2154
LZ 10.9 MEMB 3 11 12 20 22 24 28 29 73 77 78 83 85 87 TO 89 173 177 178 183 -
185 187 TO 189 233 237 238 243 245 247 TO 249 313 317 318 323 325 327 329 -
651 655 668 TO 670 672 688 691 696 699 701 792 793 795 807 808 810 -
842 TO 844 846 971 974 2086 2092 2095 2101 2109 2112 2116 2121 2122 2125 -
2128 2131 2134 2144 2148 2152 2155
LZ 10.948 MEMB 483 484 666 667 682 683 695 697 1229 1231 1238 1240 1422 1426 -
1508 1509 1517 1518 1537 1539 1594 2110 2111 2113 TO 2115
LZ 14.64 MEMB 37 38 44 46 57 58 64 66 97 98 104 106 117 118 124 126 137 138 -
144 146 157 158 164 166 197 198 204 206 217 218 224 226 257 258 264 266 267 -
269 277 278 284 286 287 289 297 298 304 306 307 309 638 639 642 643 646 647 -
798 800 803 805 813 815 818 820 823 825 828 830 833 835 838 840 849 851 852 -
854 856 859 861 863 TO 865 2137 TO 2139
LZ 7.283 MEMB 1147 TO 1149 1151 TO 1154 1156 TO 1159 1161 1163 TO 1165 1167 -
1168 TO 1170 1172 TO 1175 1177 1179 TO 1181 1183 TO 1186 1188 TO 1191 1193 -
1195 TO 1197 1199 TO 1202 1204 TO 1207 1209 1212 1214 1216 1218 1220 1222 -
1224 1226 1228 1230 1232 1234 1237 1239 1241 1243 1245 TO 1247 1249 1251 -
1253 1255 TO 1257 1520 1522 1524 1526 1528 1530 1532 1534 1536 1538 1540 -
1541 1765 2141 2156 2157
LZ 4.85 MEMB 31 51 71 91 111 131 151 171 211 231 251 271 291 1433 TO 1445 -
2167 2169
LY 1.5 MEMB 3 11 12 20 22 24 28 29 31 33 37 TO 39 42 TO 49 51 53 57 TO 59 -
62 TO 69 71 73 77 78 80 83 85 87 TO 89 91 93 97 TO 100 102 TO 109 111 113 -
117 TO 120 122 TO 129 131 133 137 TO 140 142 TO 149 151 153 157 TO 160 162 -
163 TO 169 171 173 177 178 180 183 185 187 TO 189 193 197 TO 199 202 TO 209 -
211 213 217 TO 219 222 TO 229 231 233 237 238 243 245 247 TO 249 251 253 -
257 258 262 TO 267 269 271 273 277 278 282 TO 287 289 291 293 297 298 302 -
303 TO 307 309 313 317 318 323 325 327 329 465 473 485 638 TO 649 651 TO 653 -
655 TO 657 660 TO 670 672 684 685 687 TO 692 694 TO 697 699 701 702 792 793 -
795 797 TO 808 810 812 TO 844 846 848 TO 856 858 TO 861 863 TO 866 -
971 TO 980 1129 1130 1146 TO 1149 1151 TO 1154 1156 TO 1159 1161 TO 1165 -
1167 TO 1170 1172 TO 1175 1177 TO 1181 1183 TO 1186 1188 TO 1191 -
1193 TO 1197 1199 TO 1202 1204 TO 1207 1209 1210 1212 TO 1232 1234 TO 1241 -
1243 1245 TO 1247 1249 1251 1253 1255 TO 1257 1264 1265 1267 1269 1271 1273 -
1275 1277 1279 1362 1380 TO 1382 1388 TO 1390 1392 TO 1394 1396 TO 1398 -
1400 TO 1402 1404 TO 1406 1408 TO 1410 1412 TO 1414 1416 TO 1418 -
1420 TO 1422 1424 2148 2155
LY 1.5 MEMB 2156 2167
LY 1.5 MEMB 1425 1426 1428 1429 1432 2086 2092 2095 2101 2109 2112 2116 2121 -
2122 2125 2128 2131 2134 2137 TO 2139 2144 2152
LY 1.5 MEMB 1433 TO 1445 1499 1503 1510 TO 1541 1549 1573 1574 1576 1578 -
1584 1595 1597 1599 1710 1711 1715 1759 1762 1765 1775 1778 1780 1783 1785 -
1786 1788 1790 1792 1793 1795 1797 1799 1800 1802 1804 1806 1807 1809 1811 -
1813 1814 1816 1818 1820 1821 1823 1825 1827 1828 1830 1832 1834 1835 1837 -
1839 1841 1842 1844 1846 1848 1849 1851 1853 1855 1856 1858 1860 1862 1863 -
1865 1867 1869 1870 1872 1874 1876 1877 1879 1881 1883 1884 1886 1888 1910 -
1914 1918 1920 TO 1922 1928 1930 1932 TO 1936 1938 1940 1942 1944 1946 1948 -
1950 1952 1954 1956 1958 1960 1962 1965 1967 1969 1971 1973 1975 1977 1979 -
1981 1983 1985 1987 1989 1991 1994 1996 1998 2000 2002 2004 2006 2008 2010 -
2012 2014 2016 2018 2020 2076 2078 2080 2094 2108 2111 2114 2115 2118 2120 -
2124 2133 2141 TO 2143 2146 2147 2151 2154 2157 2169
UNB 1.5 MEMB 3 11 12 20 22 24 28 29 31 33 37 TO 39 42 TO 49 51 53 57 TO 59 -
62 TO 69 71 73 77 78 80 83 85 87 TO 89 91 93 97 TO 100 102 TO 109 111 113 -
117 TO 120 122 TO 129 131 133 137 TO 140 142 TO 149 151 153 157 TO 160 162 -
163 TO 169 171 173 177 178 180 183 185 187 TO 189 193 197 TO 199 202 TO 209 -
211 213 217 TO 219 222 TO 229 231 233 237 238 243 245 247 TO 249 251 253 -
257 258 262 TO 267 269 271 273 277 278 282 TO 287 289 291 293 297 298 302 -
303 TO 307 309 313 317 318 323 325 327 329 465 473 485 638 TO 649 651 TO 653 -
655 TO 657 660 TO 670 672 684 685 687 TO 692 694 TO 697 699 701 702 792 793 -
795 797 TO 808 810 812 TO 844 846 848 TO 856 858 TO 861 863 TO 866 -
971 TO 980 1129 1130 1146 TO 1149 1151 TO 1154 1156 TO 1159 1161 TO 1165 -
1167 TO 1170 1172 TO 1175 1177 TO 1181 1183 TO 1186 1188 TO 1191 -
1193 TO 1197 1199 TO 1202 1204 TO 1207 1209 1210 1212 TO 1232 1234 TO 1241 -
1243 1245 TO 1247 1249 1251 1253 1255 TO 1257 1264 1265 1267 1269 1271 1273 -
1275 1277 1279 1362 1380 TO 1382 1388 TO 1390 1392 TO 1394 1396 TO 1398 -
1400 TO 1402 1404 TO 1406 1408 TO 1410 1412 TO 1414 1416 TO 1418 -
1420 TO 1422 1424 2148 2155
UNB 1.5 MEMB 2156 2167
UNB 1.5 MEMB 1425 1426 1428 1429 1432 2086 2092 2095 2101 2109 2112 2116 -
2121 2122 2125 2128 2131 2134 2137 TO 2139 2144 2152
UNB 1.5 MEMB 1433 TO 1445 1499 1503 1510 TO 1541 1549 1573 1574 1576 1578 -
1584 1595 1597 1599 1710 1711 1715 1759 1762 1765 1775 1778 1780 1783 1785 -
1786 1788 1790 1792 1793 1795 1797 1799 1800 1802 1804 1806 1807 1809 1811 -
1813 1814 1816 1818 1820 1821 1823 1825 1827 1828 1830 1832 1834 1835 1837 -
1839 1841 1842 1844 1846 1848 1849 1851 1853 1855 1856 1858 1860 1862 1863 -
1865 1867 1869 1870 1872 1874 1876 1877 1879 1881 1883 1884 1886 1888 1910 -
1914 1918 1920 TO 1922 1928 1930 1932 TO 1936 1938 1940 1942 1944 1946 1948 -
1950 1952 1954 1956 1958 1960 1962 1965 1967 1969 1971 1973 1975 1977 1979 -
1981 1983 1985 1987 1989 1991 1994 1996 1998 2000 2002 2004 2006 2008 2010 -
2012 2014 2016 2018 2020 2076 2078 2080 2094 2108 2111 2114 2115 2120 2124 -
2133 2141 TO 2143 2146 2147 2151 2154 2157 2169
UNT 1.5 MEMB 3 11 12 20 22 24 28 29 31 33 37 TO 39 42 TO 49 51 53 57 TO 59 -
62 TO 69 71 73 77 78 80 83 85 87 TO 89 91 93 97 TO 100 102 TO 109 111 113 -
117 TO 120 122 TO 129 131 133 137 TO 140 142 TO 149 151 153 157 TO 160 162 -
163 TO 169 171 173 177 178 180 183 185 187 TO 189 193 197 TO 199 202 TO 209 -
211 213 217 TO 219 222 TO 229 231 233 237 238 243 245 247 TO 249 251 253 -
257 258 262 TO 267 269 271 273 277 278 282 TO 287 289 291 293 297 298 302 -
303 TO 307 309 313 317 318 323 325 327 329 465 473 485 638 TO 649 651 TO 653 -
655 TO 657 660 TO 670 672 684 685 687 TO 692 694 TO 697 699 701 702 792 793 -
795 797 TO 808 810 812 TO 844 846 848 TO 856 858 TO 861 863 TO 866 -
971 TO 980 1129 1130 1146 TO 1149 1151 TO 1154 1156 TO 1159 1161 TO 1165 -
1167 TO 1170 1172 TO 1175 1177 TO 1181 1183 TO 1186 1188 TO 1191 -
1193 TO 1197 1199 TO 1202 1204 TO 1207 1209 1210 1212 TO 1232 1234 TO 1241 -
1243 1245 TO 1247 1249 1251 1253 1255 TO 1257 1264 1265 1267 1269 1271 1273 -
1275 1277 1279 1362 1380 TO 1382 1388 TO 1390 1392 TO 1394 1396 TO 1398 -
1400 TO 1402 1404 TO 1406 1408 TO 1410 1412 TO 1414 1416 TO 1418 -
1420 TO 1422 1424 2148 2155
UNT 1.5 MEMB 2156 2167
UNT 1.5 MEMB 1425 1426 1428 1429 1432 2086 2092 2095 2101 2109 2112 2116 -
2121 2122 2125 2128 2131 2134 2137 TO 2139 2144 2152
UNT 1.5 MEMB 1433 TO 1445 1499 1503 1510 TO 1541 1549 1573 1574 1576 1578 -
1584 1595 1597 1599 1710 1711 1715 1759 1762 1765 1775 1778 1780 1783 1785 -
1786 1788 1790 1792 1793 1795 1797 1799 1800 1802 1804 1806 1807 1809 1811 -
1813 1814 1816 1818 1820 1821 1823 1825 1827 1828 1830 1832 1834 1835 1837 -
1839 1841 1842 1844 1846 1848 1849 1851 1853 1855 1856 1858 1860 1862 1863 -
1865 1867 1869 1870 1872 1874 1876 1877 1879 1881 1883 1884 1886 1888 1910 -
1914 1918 1920 TO 1922 1928 1930 1932 TO 1936 1938 1940 1942 1944 1946 1948 -
1950 1952 1954 1956 1958 1960 1962 1965 1967 1969 1971 1973 1975 1977 1979 -
1981 1983 1985 1987 1989 1991 1994 1996 1998 2000 2002 2004 2006 2008 2010 -
2012 2014 2016 2018 2020 2076 2078 2080 2094 2108 2111 2114 2115 2120 2124 -
2133 2141 TO 2143 2146 2147 2151 2154 2157 2169
RATIO 0.99 MEMB 1 3 4 11 12 20 22 24 28 TO 39 42 TO 59 62 TO 74 77 78 80 83 -
85 87 TO 100 102 TO 120 122 TO 140 142 TO 160 162 TO 178 180 183 185 187 -
188 TO 189 192 TO 195 197 TO 199 202 TO 215 217 TO 219 222 TO 234 237 238 -
243 245 247 TO 258 262 TO 267 269 TO 278 282 TO 287 289 TO 298 302 TO 307 -
309 312 TO 318 321 323 325 327 329 465 468 469 473 475 TO 477 482 TO 485 -
498 TO 500 502 504 512 638 TO 649 651 TO 653 655 TO 657 660 TO 670 672 675 -
676 TO 685 687 TO 692 694 TO 697 699 TO 703 706 711 717 718 721 726 732 733 -
736 741 747 748 751 756 762 763 766 771 777 778 781 782 785 TO 793 795 797 -
798 TO 808 810 812 TO 844 846 848 TO 856 858 TO 861 863 TO 867 873 878 881 -
887 892 895 901 906 909 915 920 923 929 934 937 940 943 948 954 955 958 963 -
969 TO 980 985 991 TO 1026 1028 TO 1091 1096 TO 1127 1129 1130 1144 1146 -
1147 TO 1210 1212 TO 1258 1262 1264 1265 1267 1269 1271 1273 1275 1277 1279 -
1361 1362 1364 TO 1366 1380 TO 1383 1388 TO 1445 1460 TO 1495 1497 TO 1541 -
1549 1551 1552 1554 1555 1559 1573 1574 1576 1578 1584 TO 1587 1590 1594 -
1595 1597 1599 1606 1710 1711 1714 TO 1717 1722 1723 1725 1726 1728 1729 -
1731 1732 1734 1735
RATIO 0.99 MEMB 1737 2148 2155 2156 2158 2159 2165 2167 2169 2170
RATIO 0.99 MEMB 1759 1762 1765 1812 TO 1814 1816 1818 1826 TO 1828 1830 1832 -
1942 1948 1971 1977 2000 2006 2086 2092 TO 2095 2101 2107 TO 2125 2128 2131 -
2132 TO 2134 2140 TO 2147 2150 TO 2154 2157
RATIO 0.99 MEMB 2086 2092 TO 2095 2101 2107 TO 2116 2121 2122 2125 2128 2131 -
2134 2137 TO 2139 2144 2152
RATIO 0.99 MEMB 1738 1759 1762 1765 1774 1775 1778 1780 1783 2076 2086 2092 -
2096 2102 2140 TO 2143 2145 TO 2147 2157
RATIO 0.99 MEMB 2078 2080
RATIO 0.99 MEMB 1784 TO 1786 1788 1790 TO 1793 1795 1797 TO 1800 1802 1804 -
1805 TO 1807 1809 1811 2023 TO 2070
RATIO 0.99 MEMB 1812 TO 1814 1816 1818 TO 1821 1823 1825 TO 1828 1830 1832 -
1833 TO 1835 1837 1839 TO 1842 1844 1846 TO 1849 1851 1853 TO 1856 1858 1860 -
1861 TO 1863 1865 1867 TO 1870 1872 1874 TO 1877 1879 1881 TO 1884 1886 1888 -
1889 1892 1897 1903 1908 1910 1912 1914 1916 1918 1920 TO 1922 1927 TO 1938 -
1940 1942 TO 1944 1946 1948 1950 1952 TO 1954 1956 1958 1960 1962 -
1964 TO 1967 1969 1971 TO 1973 1975 1977 1979 1981 TO 1983 1985 1987 1989 -
1991 1993 TO 1996 1998 2000 TO 2002 2004 2006 2008 2010 TO 2012 2014 2016 -
2018 2020 2022 2071 TO 2074
STP 2 MEMB 1 3 4 11 12 20 22 24 28 TO 39 42 TO 59 62 TO 74 77 78 80 83 85 -
87 TO 100 102 TO 120 122 TO 140 142 TO 160 162 TO 171 173 TO 178 183 185 -
187 TO 189 192 TO 195 197 TO 199 202 TO 215 217 TO 219 222 TO 234 237 238 -
243 245 247 TO 258 262 TO 267 269 TO 278 282 TO 287 289 TO 298 302 TO 307 -
309 312 TO 318 321 323 325 327 329 465 468 469 473 475 TO 477 482 TO 485 -
498 TO 500 502 504 512 638 TO 649 651 TO 653 655 TO 657 660 TO 670 672 675 -
676 TO 685 687 TO 692 694 TO 697 699 TO 702 792 793 795 797 TO 808 810 812 -
813 TO 844 846 848 TO 856 858 TO 861 863 TO 866 971 TO 980 1129 1130 1144 -
1146 TO 1209 1212 TO 1258 1262 1264 1265 1267 1269 1271 1273 1275 1277 1279 -
1362 1364 1365 1380 1382 1388 TO 1390 1392 TO 1394 1396 TO 1398 -
1400 TO 1402 1404 TO 1406 1408 TO 1410 1412 TO 1414 1416 TO 1418 -
1420 TO 1422 1424 TO 1426 1428 TO 1430 1432 TO 1445 1460 TO 1495 -
1497 TO 1541 1549 1551 1552 1554 1555 1559 1573 1574 1576 1578 1584 TO 1587 -
1590 1594 1595 1597 1599 1710 1711 1715 1759 1762 1765 1774 1775 1778 1780 -
1783 TO 1786 1788 1790 TO 1793 1795 1797 TO 1800 1802 1804 TO 1807 1809 -
1811 TO 1814 1816 1818 TO 1821 1823 1825 TO 1828 1830 1832 TO 1835
STP 2 MEMB 2141 2148 2155 TO 2159 2165 2167 2169 2170
STP 2 MEMB 1942 1948 1971 1977 2000 2006 2086 2092 TO 2095 2101 2107 TO 2125 -
2128 2131 TO 2134 2140 2142 TO 2147 2150 TO 2154
STP 2 MEMB 2086 2092 TO 2095 2101 2107 TO 2116 2121 2122 2125 2128 2131 2134 -
2137 TO 2139 2144 2152
STP 2 MEMB 1837 1839 1840 2086 2092 2096 2102 2140 2142 2143 2145 TO 2147
STP 2 MEMB 2076 2078 2080
STP 2 MEMB 1841 1842 1844 1846
STP 2 MEMB 1847 TO 1849 1851 1853 TO 1856 1858 1860 TO 1863 1865 -
1867 TO 1870 1872 1874 TO 1877 1879 1881 TO 1884 1886 1888 1908 1910 1912 -
1914 1916 1918 1920 TO 1922 1927 TO 1936 1938 1940 1942 1944 1946 1948 1950 -
1952 1954 1956 1958 1960 1962 1965 1967 1969 1971 1973 1975 1977 1979 1981 -
1983 1985 1987 1989 1991 1994 1996 1998 2000 2002 2004 2006 2008 2010 2012 -
2014 2016 2018 2020
FU 410000 MEMB 703 706 711 717 718 721 726 732 733 736 741 747 748 751 756 -
762 763 766 771 777 778 781 782 785 TO 791 867 873 878 881 887 892 895 901 -
906 909 915 920 923 929 934 937 940 943 948 954 955 958 963 969 970 985 991 -
992 TO 1026 1028 TO 1127 1361 1366 1383 1391 1395 1399 1403 1407 1411 1415 -
1419 1423 1427 1431 1606 1714 1716 1717 1719 1720 1722 1723 1725 1726 1728 -
1729 1731 1732 1734 1735 1737 1738 1757 1758 1889 1892 1897 1903 1937 1943 -
1953 1964 1966 1972 1982 1993 1995 2001 2011 2022 TO 2074
FYLD 250000 MEMB 703 706 711 717 718 721 726 732 733 736 741 747 748 751 756 -
762 763 766 771 777 778 781 782 785 TO 791 867 873 878 881 887 892 895 901 -
906 909 915 920 923 929 934 937 940 943 948 954 955 958 963 969 970 985 991 -
992 TO 1026 1028 TO 1127 1361 1366 1383 1391 1395 1399 1403 1407 1411 1415 -
1419 1423 1427 1431 1606 1714 1716 1717 1719 1720 1722 1723 1725 1726 1728 -
1729 1731 1732 1734 1735 1737 1738 1757 1758 1889 1892 1897 1903 1937 1943 -
1953 1964 1966 1972 1982 1993 1995 2001 2011 2022 TO 2074
KX 0.85 MEMB 703 706 711 717 718 721 726 732 733 736 741 747 748 751 756 762 -
763 766 771 777 778 781 782 785 TO 791 867 873 878 881 887 892 895 901 906 -
909 915 920 923 929 934 937 940 943 948 954 955 958 963 969 970 985 -
991 TO 994 997 998 1001 1002 1023 TO 1026 1028 TO 1033 1038 1039 -
1060 TO 1067 1092 TO 1099 1124 TO 1127 1361 1366 1383 1391 1395 1399 1403 -
1407 1411 1415 1419 1423 1427 1431 1606 1714 1889 1892 1897 1903 1937 1943 -
1953 1964 1966 1972 1982 1993 1995 2001 2011 2022 2031 TO 2034 2043 TO 2046 -
2055 TO 2058 2067 TO 2074
KY 0.5 MEMB 703 706 711 717 718 721 726 732 733 736 741 747 748 751 756 762 -
763 766 771 777 778 781 782 785 TO 791 867 873 878 881 887 892 895 901 906 -
909 915 920 923 929 934 937 940 943 948 954 955 958 963 969 970 985 -
991 TO 994 997 998 1001 1002 1023 TO 1026 1028 TO 1033 1038 1039 -
1060 TO 1067 1092 TO 1099 1124 TO 1127 1361 1366 1383 1391 1395 1399 1403 -
1407 1411 1415 1419 1423 1427 1431 1606 1714 1889 1892 1897 1903 1937 1943 -
1953 1964 1966 1972 1982 1993 1995 2001 2011 2022 2031 TO 2034 2043 TO 2046 -
2055 TO 2058 2067 TO 2074
KZ 0.5 MEMB 703 706 711 717 718 721 726 732 733 736 741 747 748 751 756 762 -
763 766 771 777 778 781 782 785 TO 791 867 873 878 881 887 892 895 901 906 -
909 915 920 923 929 934 937 940 943 948 954 955 958 963 969 970 985 -
991 TO 994 997 998 1001 1002 1023 TO 1026 1028 TO 1033 1038 1039 -
1060 TO 1067 1092 TO 1099 1124 TO 1127 1361 1366 1383 1391 1395 1399 1403 -
1407 1411 1415 1419 1423 1427 1431 1606 1714 1889 1892 1897 1903 1937 1943 -
1953 1964 1966 1972 1982 1993 1995 2001 2011 2022 2031 TO 2034 2043 TO 2046 -
2055 TO 2058 2067 TO 2074
MAIN 250 MEMB 703 706 711 717 718 721 726 732 733 736 741 747 748 751 756 -
762 763 766 771 777 778 781 782 785 TO 791 867 873 878 881 887 892 895 901 -
906 909 915 920 923 929 934 937 940 943 948 954 955 958 963 969 970 985 991 -
992 TO 994 997 998 1001 1002 1023 TO 1026 1028 TO 1033 1038 1039 -
1060 TO 1067 1092 TO 1099 1124 TO 1127 1361 1366 1383 1391 1395 1399 1403 -
1407 1411 1415 1419 1423 1427 1431 1606 1714 1889 1892 1897 1903 1937 1943 -
1953 1964 1966 1972 1982 1993 1995 2001 2011 2022 2031 TO 2034 2043 TO 2046 -
2055 TO 2058 2067 TO 2074
TMAIN 300 MEMB 991 TO 994 997 998 1001 1002 1023 TO 1026 1028 TO 1033 1038 -
1039 1060 TO 1067 1092 TO 1099 1124 TO 1127 2031 TO 2034 2043 TO 2046 2055 -
2056 TO 2058 2067 TO 2070
STP 1 MEMB 703 706 711 717 718 721 726 732 733 736 741 747 748 751 756 762 -
763 766 771 777 778 781 782 785 TO 791 867 873 878 881 887 892 895 901 906 -
909 915 920 923 929 934 937 940 943 948 954 955 958 963 969 970 985 -
991 TO 1026 1028 TO 1127 1361 1366 1383 1391 1395 1399 1403 1407 1411 1415 -
1419 1423 1427 1431 1606 1714 1716 1717 1719 1720 1722 1723 1725 1726 1728 -
1729 1731 1732 1734 1735 1737 1738 1757 1758 1889 1892 1897 1903 1937 1943 -
1953 1964 1966 1972 1982 1993 1995 2001 2011 2022 TO 2074
TMAIN 30000 MEMB 995 996 999 1000 1003 TO 1022 1034 TO 1037 1040 TO 1059 -
1068 TO 1091 1100 TO 1123 1716 1717 1719 1720 1722 1723 1725 1726 1728 1729 -
1731 1732 1734 1735 1737 1738 1757 1758 2023 TO 2030 2035 TO 2042 -
2047 TO 2054 2059 TO 2066
MAIN 1 MEMB 995 996 999 1000 1003 TO 1022 1034 TO 1037 1040 TO 1059 -
1068 TO 1091 1100 TO 1123 1716 1717 1719 1720 1722 1723 1725 1726 1728 1729 -
1731 1732 1734 1735 1737 1738 1757 1758 2023 TO 2030 2035 TO 2042 -
2047 TO 2054 2059 TO 2066
CHECK CODE MEMB 1 3 4 11 12 20 22 24 28 TO 39 42 TO 59 62 TO 74 77 78 80 83 -
85 87 TO 100 102 TO 120 122 TO 140 142 TO 160 162 TO 178 180 183 185 187 -
188 TO 189 192 TO 195 197 TO 199 202 TO 215 217 TO 219 222 TO 234 237 238 -
243 245 247 TO 258 262 TO 267 269 TO 278 282 TO 287 289 TO 298 302 TO 307 -
309 312 TO 318 321 323 325 327 329 465 468 469 473 475 TO 477 482 TO 485 -
498 TO 500 502 504 512 638 TO 649 651 TO 653 655 TO 657 660 TO 670 672 675 -
676 TO 685 687 TO 692 694 TO 697 699 TO 703 706 711 717 718 721 726 732 733 -
736 741 747 748 751 756 762 763 766 771 777 778 781 782 785 TO 793 795 797 -
798 TO 808 810 812 TO 844 846 848 TO 856 858 TO 861 863 TO 867 873 878 881 -
887 892 895 901 906 909 915 920 923 929 934 937 940 943 948 954 955 958 963 -
969 TO 980 985 991 TO 1022 1028 TO 1059 1064 TO 1123 1129 1130 1144 1146 -
1147 TO 1210 1212 TO 1258 1262 1264 1265 1267 1269 1271 1273 1275 1277 1279 -
1361 1362 1364 TO 1366 1380 TO 1383 1387 TO 1445 1460 TO 1495 1497 TO 1541 -
1549 1551 1552 1554 1555 1559 1573 1574 1576 1578 1584 TO 1587 1590 1594 -
1595 1597 1599 1606 1710 1711 1714 TO 1717 1719 1720 1722 1723 1725 1726 -
1728 1729 1731 1732
CHECK CODE MEMB 1734 2148 2155 2156 2158 2159 2165 2167 2169 2170
CHECK CODE MEMB 1759 1762 1765 1812 TO 1814 1816 1818 1826 TO 1828 1830 1832 -
1942 1948 1971 1977 2000 2006 2086 2092 TO 2095 2101 2107 TO 2125 2128 2131 -
2132 TO 2134 2140 TO 2147 2150 TO 2154 2157
CHECK CODE MEMB 2086 2092 TO 2095 2101 2107 TO 2116 2121 2122 2125 2128 2131 -
2134 2137 TO 2139 2144 2152
CHECK CODE MEMB 1735 1737 1738 1757 TO 1759 1762 1765 1774 1775 2086 2092 -
2096 2102 2140 TO 2143 2145 TO 2147 2157
CHECK CODE MEMB 2076 2078 2080
CHECK CODE MEMB 1778 1780 1783 2023 TO 2030 2035 TO 2042 2047 TO 2054 2059 -
2060 TO 2066
CHECK CODE MEMB 467 659 1023 TO 1026 1060 TO 1063 1124 TO 1127 1211 1386 -
1784 TO 1786 1788 1790 TO 1793 1795 1797 TO 1800 1802 1804 TO 1807 1809 -
1811 TO 1814 1816 1818 TO 1821 1823 1825 TO 1828 1830 1832 TO 1835 1837 -
1839 TO 1842 1844 1846 TO 1849 1851 1853 TO 1856 1858 1860 TO 1863 1865 -
1867 TO 1870 1872 1874 TO 1877 1879 1881 TO 1884 1886 1888 1889 1892 1897 -
1903 1908 1910 1912 1914 1916 1918 1920 TO 1922 1927 TO 1938 1940 -
1942 TO 1944 1946 1948 1950 1952 TO 1954 1956 1958 1960 1962 1964 TO 1967 -
1969 1971 TO 1973 1975 1977 1979 1981 TO 1983 1985 1987 1989 1991 -
1993 TO 1996 1998 2000 TO 2002 2004 2006 2008 2010 TO 2012 2014 2016 2018 -
2020 2022 2031 TO 2034 2043 TO 2046 2055 TO 2058 2067 TO 2074
STEEL MEMBER TAKE OFF LIST 1 3 4 11 12 20 22 24 28 TO 39 42 TO 59 62 TO 74 -
77 78 80 83 85 87 TO 100 102 TO 120 122 TO 140 142 TO 160 162 TO 178 180 -
183 185 187 TO 189 192 TO 195 197 TO 199 202 TO 215 217 TO 219 222 TO 234 -
237 238 243 245 247 TO 258 262 TO 267 269 TO 278 282 TO 287 289 TO 298 302 -
303 TO 307 309 312 TO 318 321 323 325 327 329 465 468 469 473 475 TO 477 482 -
483 TO 485 498 TO 500 502 504 512 638 TO 649 651 TO 653 655 TO 657 -
660 TO 670 672 675 TO 685 687 TO 692 694 TO 697 699 TO 702 792 793 795 797 -
798 TO 808 810 812 TO 844 846 848 TO 856 858 TO 861 863 TO 866 971 TO 980 -
1129 1130 1144 1146 TO 1210 1212 TO 1258 1262 1264 1265 1267 1269 1271 1273 -
1275 1277 1279 1362 1364 1365 1381 1390 1394 1398 1402 1406 1410 1414 1418 -
1422 1426 1430 1433 TO 1445 1460 TO 1495 1497 TO 1541 1549 1551 1552 1554 -
1555 1559 1573 1574 1576 1578 1584 TO 1587 1590 1594 1595 1597 1599 1759 -
1762 1765 1774 1775 1778 1780 1783 TO 1786 1788 1790 TO 1793 1795 -
1797 TO 1800 1802 1804 TO 1807 1809 1811 TO 1814 1816 1818 TO 1821 1823 -
1825 TO 1828 1830 1832 TO 1835 1837 1839 TO 1842 1844 1846 TO 1849 1851 -
1853 TO 1856 1858 1860 TO 1863 1865 1867 TO 1870 1872 1874 TO 1877 1879 -
1881 TO 1884
STEEL MEMBER TAKE OFF LIST 2141 2148 2155 TO 2159 2165 2167 2169 2170
STEEL MEMBER TAKE OFF LIST 1942 1948 1971 1977 2000 2006 2086 2092 TO 2095 -
2101 2107 TO 2125 2128 2131 TO 2134 2140 2142 TO 2147 2150 TO 2154
STEEL MEMBER TAKE OFF LIST 2086 2092 TO 2095 2101 2107 TO 2116 2121 2122 -
2125 2128 2131 2134 2137 TO 2139 2144 2152
STEEL MEMBER TAKE OFF LIST 1886 1888 1908 1910 1912 1914 1916 2086 2092 2096 -
2102 2140 2142 2143 2145 TO 2147
STEEL MEMBER TAKE OFF LIST 2076 2078 2080
STEEL MEMBER TAKE OFF LIST 1918 1920 TO 1922
STEEL MEMBER TAKE OFF LIST 1927 TO 1936 1938 1940 1942 1944 1946 1948 1950 -
1952 1954 1956 1958 1960 1962 1965 1967 1969 1971 1973 1975 1977 1979 1981 -
1983 1985 1987 1989 1991 1994 1996 1998 2000 2002 2004 2006 2008 2010 2012 -
2014 2016 2018 2020
STEEL MEMBER TAKE OFF LIST 1380 1382 1383 1388 1389 1391 TO 1393 -
1395 TO 1397 1399 TO 1401 1403 TO 1405 1407 TO 1409 1411 TO 1413 -
1415 TO 1417 1419 TO 1421 1423 TO 1425 1427 TO 1429 1431 1432 1710 1711 -
1714 1715
STEEL MEMBER TAKE OFF LIST 703 706 711 717 718 721 726 732 733 736 741 747 -
748 751 756 762 763 766 771 777 778 781 782 785 TO 791 867 873 878 881 887 -
892 895 901 906 909 915 920 923 929 934 937 940 943 948 954 955 958 963 969 -
970 985 991 TO 1020 1028 TO 1057 1064 TO 1089 1096 TO 1121 1361 1366 1606 -
1716 1717 1719 1720 1725 1726 1728 1729 1731 1732 1734 1735 1737 1738 1757 -
1758 1889 1892 1897 1903 1937 1943 1953 1964 1966 1972 1982 1993 1995 2001 -
2011 2022 2071 TO 2074
FINISH
