STAAD SPACE
********************************************************
START JOB INFORMATION
JOB NAME SM AUTO
JOB CLIENT SM AUTO HOSUR
JOB NO SM AUTO
JOB REV 0
ENGINEER NAME SWE
APPROVED NAME MKN
ENGINEER DATE 09-Sep-25
END JOB INFORMATION
********************************************************
* BUILDING INPUT DATA
* WIDTH = 50.63 M
* LENGTH = 87 M
* EAVE HEIGHT = 11 M
* BAY SPACING = 7.13 M
* BRICK WORK = 4.2 M
* SLOPE = 5.71 DEGREES
********************************************************
INPUT WIDTH 79
********************************************************
UNIT METER KN
JOINT COORDINATES
1 -50.63 -0.45 0; 2 -50.63 4.3 0; 3 -50.63 8.437 0; 4 -46.211 8.879 0;
5 -43.2259 9.1776 0; 6 -40.2408 9.4761 0; 7 -37.2557 9.7747 0;
8 -34.2706 10.0733 0; 9 -31.2855 10.3718 0; 10 -28.3004 10.6704 0;
11 -25.315 -0.45 0; 12 -25.315 10.969 0; 13 -22.3296 10.6704 0;
14 -19.3445 10.3718 0; 15 -16.3594 10.0733 0; 16 -13.3743 9.7747 0;
17 -10.3892 9.4761 0; 18 -7.40406 9.1776 0; 19 -4.41895 8.879 0; 20 0 -0.45 0;
21 0 4.3 0; 22 0 8.437 0; 23 4.41895 8.879 0; 24 7.40406 9.1776 0;
25 10.3892 9.4761 0; 26 13.3743 9.7747 0; 27 16.3594 10.0733 0;
28 19.3445 10.3718 0; 29 22.3296 10.6704 0; 30 25.315 -0.45 0;
31 25.315 10.969 0; 32 28.3004 10.6704 0; 33 31.2855 10.3718 0;
34 34.2706 10.0733 0; 35 37.2557 9.7747 0; 36 40.2408 9.4761 0;
37 43.2259 9.1776 0; 38 43.51 -0.45 0; 39 43.51 4.3 0; 40 46.211 8.879 0;
41 50.63 -0.45 0; 42 50.63 4.3 0; 43 50.63 8.437 0; 44 -50.63 4.3 7.36;
45 -50.63 -0.45 7.36; 46 -50.63 8.437 7.36; 47 -25.315 10.969 7.36;
49 0 4.3 7.36; 50 0 -0.45 7.36; 51 0 8.437 7.36; 52 25.315 10.969 7.36;
54 50.63 4.3 7.36; 55 50.63 -0.45 7.36; 56 50.63 8.437 7.36;
57 -46.211 8.879 7.36; 58 -43.2259 9.1776 7.36; 59 -40.2408 9.4761 7.36;
60 -37.2557 9.7747 7.36; 61 -34.2706 10.0733 7.36; 62 -31.2855 10.3718 7.36;
63 -28.3004 10.6704 7.36; 64 -22.3296 10.6704 7.36; 65 -19.3445 10.3718 7.36;
66 -16.3594 10.0733 7.36; 67 -13.3743 9.7747 7.36; 68 -10.3892 9.4761 7.36;
# ... 283 like lines cut
********************************************************
MEMBER INCIDENCES
1 2 1; 2 3 2; 3 12 11; 4 21 20; 5 22 21; 6 31 30; 7 42 41; 8 43 42; 9 3 4;
10 4 5; 11 5 6; 12 6 7; 13 7 8; 14 8 9; 15 9 10; 16 12 10; 17 12 13; 18 14 13;
19 15 14; 20 16 15; 21 17 16; 22 18 17; 23 19 18; 24 22 19; 25 22 23; 26 23 24;
27 24 25; 28 25 26; 29 26 27; 30 27 28; 31 28 29; 32 31 29; 33 31 32; 34 33 32;
35 34 33; 36 35 34; 37 36 35; 38 37 36; 39 40 37; 40 43 40; 41 39 38; 42 39 42;
43 44 45; 44 46 44; 46 49 50; 47 51 49; 49 54 55; 50 56 54; 51 46 57; 52 57 58;
53 58 59; 54 59 60; 55 60 61; 56 61 62; 57 62 63; 58 47 63; 59 47 64; 60 65 64;
61 66 65; 62 67 66; 63 68 67; 64 69 68; 65 70 69; 66 51 70; 67 51 71; 68 71 72;
69 72 73; 70 73 74; 71 74 75; 72 75 76; 73 76 77; 74 52 77; 75 52 78; 76 79 78;
77 80 79; 78 81 80; 79 82 81; 80 83 82; 81 84 83; 82 56 84; 83 85 86; 84 85 54;
85 87 88; 86 89 87; 87 90 91; 88 92 93; 89 94 92; 90 95 96; 91 97 98; 92 99 97;
93 89 100; 94 100 101; 95 101 102; 96 102 103; 97 103 104; 98 104 105;
99 105 106; 100 90 106; 101 90 107; 102 108 107; 103 109 108; 104 110 109;
105 111 110; 106 112 111; 107 113 112; 108 94 113; 109 94 114; 110 114 115;
111 115 116; 112 116 117; 113 117 118; 114 118 119; 115 119 120; 116 95 120;
117 95 121; 118 122 121; 119 123 122; 120 124 123; 121 125 124; 122 126 125;
123 127 126; 124 99 127; 125 128 129; 126 128 97; 127 130 131; 128 132 130;
130 135 136; 131 137 135; 133 140 141; 134 142 140; 135 132 143; 136 143 144;
137 144 145; 138 145 146; 139 146 147; 140 147 148; 141 148 149; 142 133 149;
143 133 150; 144 151 150; 145 152 151; 146 153 152; 147 154 153; 148 155 154;
# ... 123 like lines cut
START USER TABLE
TABLE 2
UNIT MMS KN
GENERAL
724x8-325x12
26736 724 8 325 12 1.28599e+09 1.28599e+09 1.16036e+06 3.55245e+06 -
3.55245e+06 6340.94 6432.92 4.40162e+06 4.40162e+06 1.73885e+10 687.072
PROFILE_POINTS
 -162.5 362 162.5 362 162.5 350 4 350 4 4 350 4 350 162.5 362 -
162.5 362 -162.5 350 -162.5 350 -4 4 -4 4 -350 162.5 -350 162.5 -362 -162.5 -
-362 -162.5 -350 -4 -350 -4 -4 -350 -4 -350 -162.5 -362 -162.5 -362 162.5 -
-350 162.5 -350 4 -4 4 -4 350 -162.5 350
END
********************************************************
UNIT METER KN
DEFINE MATERIAL START
ISOTROPIC STEEL
E 2.05e+08
POISSON 0.3
DENSITY 76.8195
ALPHA 1.2e-05
DAMP 0.03
END DEFINE MATERIAL
********************************************************
CONSTANTS
BETA 90 MEMB 3 6 87 90 171 174 255 258 339 342 423 426 507 510 576 658 740 -
822 904 986 1068
MATERIAL STEEL ALL
********************************************************
UNIT MMS KN
MEMBER PROPERTY AMERICAN
********************************************************
* COLUMN
4 46 88 130 172 214 256 298 340 382 424 466 508 574 615 656 697 738 779 820 -
861 902 943 984 1025 1066 TAPERED 828 8 828 300 14
5 47 89 131 173 215 257 299 341 383 425 467 509 575 616 657 698 739 780 821 -
862 903 944 985 1026 1067 TAPERED 828 8 828 300 14
*
1 2 43 44 85 86 127 128 169 170 211 212 253 254 295 296 337 338 379 380 421 -
422 463 464 505 506 TAPERED 832 8 832 300 14
7 8 49 50 91 92 133 134 175 176 217 218 259 260 301 302 343 344 385 386 427 -
428 469 470 511 512 577 578 617 618 659 660 699 700 741 742 781 782 823 824 -
863 864 905 906 945 946 987 988 1027 1028 1069 -
1070 TAPERED 840 8 840 300 20
*
* RAFTER
9 24 25 40 51 66 67 82 93 108 109 124 135 150 151 166 177 192 193 208 219 -
234 235 250 261 276 277 292 303 318 319 334 345 360 361 376 387 402 403 418 -
429 444 445 460 471 486 487 502 513 528 529 544 595 610 635 650 677 692 717 -
732 759 774 799 814 841 856 881 896 923 938 963 978 1005 1020 1045 1060 -
1087 1102 TAPERED 874 8 674 250 12
10 23 26 39 52 65 68 81 94 107 110 123 136 149 152 165 178 191 194 207 220 -
233 236 249 262 275 278 291 304 317 320 333 346 359 362 375 388 401 404 417 -
430 443 446 459 472 485 488 501 514 527 530 543 596 609 636 649 678 691 718 -
731 760 773 800 813 842 855 882 895 924 937 964 977 1006 1019 1046 1059 -
1088 1101 TAPERED 668 6 668 200 9
11 22 27 38 53 64 69 80 95 106 111 122 137 148 153 164 179 190 195 206 221 -
232 237 248 263 274 279 290 305 316 321 332 347 358 363 374 389 400 405 416 -
431 442 447 458 473 484 489 500 515 526 531 542 597 608 637 648 679 690 719 -
730 761 772 801 812 843 854 883 894 925 936 965 976 1007 1018 1047 1058 -
1089 1100 TAPERED 668 6 668 200 9
*
12 21 28 37 54 63 70 79 96 105 112 121 138 147 154 163 180 189 196 205 222 -
231 238 247 264 273 280 289 306 315 322 331 348 357 364 373 390 399 406 415 -
432 441 448 457 474 483 490 499 516 525 532 541 598 607 638 647 680 689 720 -
729 762 771 802 811 844 853 884 893 926 935 966 975 1008 1017 1048 1057 -
1090 1099 TAPERED 668 6 668 200 9
13 20 29 36 55 62 71 78 97 104 113 120 139 146 155 162 181 188 197 204 223 -
230 239 246 265 272 281 288 307 314 323 330 349 356 365 372 391 398 407 414 -
433 440 449 456 475 482 491 498 517 524 533 540 599 606 639 646 681 688 721 -
728 763 770 803 810 845 852 885 892 927 934 967 974 1009 1016 1049 1056 -
1091 1098 TAPERED 668 6 668 200 9
14 19 30 35 56 61 72 77 98 103 114 119 140 145 156 161 182 187 198 203 224 -
229 240 245 266 271 282 287 308 313 324 329 350 355 366 371 392 397 408 413 -
434 439 450 455 476 481 492 497 518 523 534 539 600 605 640 645 682 687 722 -
727 764 769 804 809 846 851 886 891 928 933 968 973 1010 1015 1050 1055 -
1092 1097 TAPERED 668 6 668 200 9
15 18 31 34 57 60 73 76 99 102 115 118 141 144 157 160 183 186 199 202 225 -
228 241 244 267 270 283 286 309 312 325 328 351 354 367 370 393 396 409 412 -
435 438 451 454 477 480 493 496 519 522 535 538 601 604 641 644 683 686 723 -
726 765 768 805 808 847 850 887 890 929 932 969 972 1011 1014 1051 1054 -
1093 1096 TAPERED 674 6 674 200 12
*
16 17 32 33 58 59 74 75 100 101 116 117 142 143 158 159 184 185 200 201 226 -
227 242 243 268 269 284 285 310 311 326 327 352 353 368 369 394 395 410 411 -
436 437 452 453 478 479 494 495 520 521 536 537 602 603 642 643 684 685 724 -
725 766 767 806 807 848 849 888 889 930 931 970 971 1012 1013 1052 1053 -
1094 1095 TAPERED 978 7 678 225 14
* MEZZ BEAM
42 84 126 168 210 252 294 336 378 420 462 504 546 612 652 694 734 776 816 -
858 898 940 980 1022 1062 1104 TAPERED 674 8 674 275 12
* MEZZ COL
41 83 125 167 209 251 293 335 377 419 461 503 545 611 651 693 733 775 815 -
857 897 939 979 1021 1061 1103 TAPERED 378 5 378 300 14
*
547 TO 570 1117 TO 1128 TAPERED 886 8 886 350 18
MEMBER PROPERTY
3 6 87 90 171 174 255 258 339 342 423 426 507 510 576 658 740 822 904 986 -
1068 UPTABLE 2 724x8-325x12
********************************************************
SUPPORTS
11 30 38 86 91 96 129 172 177 182 215 258 263 268 301 344 349 354 387 430 -
435 440 473 516 521 526 559 569 602 643 653 686 727 737 770 811 821 854 895 -
905 938 979 989 1022 1063 1073 1106 PINNED
1 20 41 45 50 55 88 93 98 131 136 141 174 179 184 217 222 227 260 265 270 -
303 308 313 346 351 356 389 394 399 432 437 442 475 480 485 518 523 528 566 -
571 607 610 650 655 691 694 734 739 775 778 818 823 859 862 902 907 943 946 -
986 991 1027 1030 1070 1075 FIXED
********************************************************
***************** SEISMIC FORCE *********************
* IS 1893(PART-1) 2016:  ZONE-II,I=1,R=4
UNIT METER KG
MEMBER RELEASE
3 6 87 90 171 174 255 258 339 342 423 426 507 510 576 658 740 822 904 986 -
1068 START MY
UNIT METER KN
DEFINE IS1893 2016 LOAD
ZONE 0.1 RF 4 I 1 SS 2 ST 3 DM 0.05
*
SELFWEIGHT 1 
MEMBER WEIGHT
* 0.15 * 7.245 = 1.09 KN/M
9 TO 40 51 TO 82 93 TO 124 135 TO 166 177 TO 208 219 TO 250 261 TO 292 303 -
304 TO 334 345 TO 376 387 TO 418 429 TO 460 471 TO 502 513 TO 544 595 TO 610 -
635 TO 650 677 TO 692 717 TO 732 759 TO 774 799 TO 814 841 TO 856 -
881 TO 896 923 TO 938 963 TO 978 1005 TO 1020 1045 TO 1060 1087 TO 1101 -
1102 UNI 1.09
** 4.38 * 7.245 = 31.70 KN/M
42 84 126 168 210 252 294 336 378 420 462 504 546 612 652 694 734 776 816 -
858 898 940 980 1022 1062 1104 UNI 31.7
* 0.5 * 7.245 = 3.63 KN/M
9 TO 40 51 TO 82 93 TO 124 135 TO 166 177 TO 208 219 TO 250 261 TO 292 303 -
304 TO 334 345 TO 376 387 TO 418 429 TO 460 471 TO 502 513 TO 544 595 TO 610 -
635 TO 650 677 TO 692 717 TO 732 759 TO 774 799 TO 814 841 TO 856 -
881 TO 896 923 TO 938 963 TO 978 1005 TO 1020 1045 TO 1060 1087 TO 1101 -
1102 UNI 3.63
** 10 * 7.245 * 0.5 = 36.23 KN/M
42 84 126 168 210 252 294 336 378 420 462 504 546 612 652 694 734 776 816 -
858 898 940 980 1022 1062 1104 UNI 36.23
********************************************************
LOAD 1 SEIS +X
1893 LOAD X 1
PERFORM ANALYSIS
CHANGE
********************************************************
LOAD 2 SEIS -X
1893 LOAD X -1
PERFORM ANALYSIS
CHANGE
********************************************************
LOAD 3 DEAD LOAD (DL)
SELFWEIGHT Y -1 
MEMBER LOAD
* 0.15 * 7.245 = 1.09 KN/M
9 TO 40 51 TO 82 93 TO 124 135 TO 166 177 TO 208 219 TO 250 261 TO 292 303 -
304 TO 334 345 TO 376 387 TO 418 429 TO 460 471 TO 502 513 TO 544 595 TO 610 -
635 TO 650 677 TO 692 717 TO 732 759 TO 774 799 TO 814 841 TO 856 -
881 TO 896 923 TO 938 963 TO 978 1005 TO 1020 1045 TO 1060 1087 TO 1101 -
1102 UNI GY -1.09
** 4.38 * 7.245 = 31.70 KN/M
42 84 126 168 210 252 294 336 378 420 462 504 546 612 652 694 734 776 816 -
858 898 940 980 1022 1062 1104 UNI GY -31.7
********************************************************
LOAD 4 LIVE LOAD ROOF (LLR)
MEMBER LOAD
* 0.75 * 7.245 = 5.44 KN/M
9 TO 40 51 TO 82 93 TO 124 135 TO 166 177 TO 208 219 TO 250 261 TO 292 303 -
304 TO 334 345 TO 376 387 TO 418 429 TO 460 471 TO 502 513 TO 544 595 TO 610 -
635 TO 650 677 TO 692 717 TO 732 759 TO 774 799 TO 814 841 TO 856 -
881 TO 896 923 TO 938 963 TO 978 1005 TO 1020 1045 TO 1060 1087 TO 1101 -
1102 UNI GY -5.44
********************************************************
LOAD 5 LIVE LOAD FLOOR (LLF)
MEMBER LOAD
** 10 * 7.245 = 72.45 KN/M
42 84 126 168 210 252 294 336 378 420 462 504 546 612 652 694 734 776 816 -
858 898 940 980 1022 1062 1104 UNI GY -72.45
********************************************************
LOAD 6 COLL LOAD (COLL)
MEMBER LOAD
* 0.5 * 7.245 = 3.63 KN/M
9 TO 40 51 TO 82 93 TO 124 135 TO 166 177 TO 208 219 TO 250 261 TO 292 303 -
304 TO 334 345 TO 376 387 TO 418 429 TO 460 471 TO 502 513 TO 544 595 TO 610 -
635 TO 650 677 TO 692 717 TO 732 759 TO 774 799 TO 814 841 TO 856 -
881 TO 896 923 TO 938 963 TO 978 1005 TO 1020 1045 TO 1060 1087 TO 1101 -
1102 UNI GY -3.63
********************************************************
********** WIND PRESSURE CALCULATIONS **********
* WIND SPEED, Vb= 33 M/SEC
* RISK COEFFICIENT, K1 = 1
* TERRAIN, HEIGHT FACTOR, K2 = 1
* TOPOGRAPHY FACTOR, K3 = 1
* IMP FACTOR FOR CYCLONIC REGION, K4 = 1
* DESIGN WIND SPEED AT HEIGHT z, Vz = Vb * K1 * K2 * K3 * K4 * x = 33 * 1 * 1 * 1 * 1 * 1 = 33 m/s
* WIND PRESSURE AT HEIGHT z, Pz = 0.6 * Vz^2 = 0.6 * 33^2 = 653.4 N/m2 = 0.654 KN/M2
* WIND DIRECTIONALITY FACTOR, Kd = 0.9
* AREA AVERAGING FACTOR, Ka = 0.8 ~ FOR RAFTER
* AREA AVERAGING FACTOR, Ka = 0.846 ~ FOR COLUMN
* COMBINATION FACTOR, Kc = 0.9
* DESIGN WIND PRESSURE, Pd = Kd*Ka*Kc*Pz = 0.458 ~ FOR RAFTER
* DESIGN WIND PRESSURE, Pd = Kd*Ka*Kc*Pz = 0.458 ~ FOR COLUMN
* INTERNAL PRESSURE COEFFICIENT = +/- 0.5
* EXTERNAL PRESSURE COEFF'S FROM IS875-III TABLES
********************************************************
*       WIND ANGLE 0 DEGREES          *
********************************************************
* WALL COEFF  	+0.70	-0.25	-0.60	-0.60
* ROOF COEFF  	-0.95	-0.40
********************************************************
*       WIND ANGLE 90 DEGREES         *
********************************************************
* WALL COEFF  	-0.50	-0.50	+0.70	-0.10
* ROOF COEFF  	-0.80	-0.80
********************************************************
LOAD 7 WL1  0(+CPI)
* #############################################
* WALL EXT PRESSURE COEFF			+0.70	-0.25	-----> Cpe
* WALL INT PRESSURE COEFF			+0.50	+0.50	-----> Cpi
* WALL OVERALL WIND COEFF			+1.20	+0.25	-----> Cp
* MEMBER FORCE ON COLUMNS			+3.99	+0.83	-----> F
* #############################################
* ROOF EXT PRESSURE COEFF			-0.95	-0.40	-----> Cpe
* ROOF INT PRESSURE COEFF			+0.50	+0.50	-----> Cpi
* ROOF OVERALL WIND COEFF			-0.45	+0.10	-----> Cp
* MEMBER FORCE ON RAFTERS			-1.50	+0.34	-----> F
* #############################################
MEMBER LOAD
1 2 43 44 85 86 127 128 169 170 211 212 253 254 295 296 337 338 379 380 421 -
422 463 464 505 506 574 575 615 616 656 657 697 698 738 739 779 780 820 821 -
861 862 902 903 943 944 984 985 1025 1026 1066 1067 UNI GX 3.99
7 8 49 50 91 92 133 134 175 176 217 218 259 260 301 302 343 344 385 386 427 -
428 469 470 511 512 577 578 617 618 659 660 699 700 741 742 781 782 823 824 -
863 864 905 906 945 946 987 988 1027 1028 1069 1070 UNI GX -0.83
9 TO 16 25 TO 32 51 TO 58 67 TO 74 93 TO 100 109 TO 116 135 TO 142 -
151 TO 158 177 TO 184 193 TO 200 219 TO 226 235 TO 242 261 TO 268 -
277 TO 284 303 TO 310 319 TO 326 345 TO 352 361 TO 368 387 TO 394 -
403 TO 410 429 TO 436 445 TO 452 471 TO 478 487 TO 494 513 TO 520 -
529 TO 536 595 TO 602 635 TO 642 677 TO 684 717 TO 724 759 TO 766 -
799 TO 806 841 TO 848 881 TO 888 923 TO 930 963 TO 970 1005 TO 1012 1045 -
1046 TO 1052 1087 TO 1094 UNI Y 1.5
17 TO 24 33 TO 40 59 TO 66 75 TO 82 101 TO 108 117 TO 124 143 TO 150 -
159 TO 166 185 TO 192 201 TO 208 227 TO 234 243 TO 250 269 TO 276 -
285 TO 292 311 TO 318 327 TO 334 353 TO 360 369 TO 376 395 TO 402 -
411 TO 418 437 TO 444 453 TO 460 479 TO 486 495 TO 502 521 TO 528 -
537 TO 544 603 TO 610 643 TO 650 685 TO 692 725 TO 732 767 TO 774 -
807 TO 814 849 TO 856 889 TO 896 931 TO 938 971 TO 978 1013 TO 1020 1053 -
1054 TO 1060 1095 TO 1102 UNI Y -0.34
********************************************************
LOAD 8 WL2  180(+CPI)
* #############################################
* WALL EXT PRESSURE COEFF			-0.25	+0.70	-----> Cpe
* WALL INT PRESSURE COEFF			+0.50	+0.50	-----> Cpi
* WALL OVERALL WIND COEFF			+0.25	+1.20	-----> Cp
* MEMBER FORCE ON COLUMNS			+0.84	+4.00	-----> F
* #############################################
* ROOF EXT PRESSURE COEFF			-0.40	-0.95	-----> Cpe
* ROOF INT PRESSURE COEFF			+0.50	+0.50	-----> Cpi
* ROOF OVERALL WIND COEFF			+0.10	-0.45	-----> Cp
* MEMBER FORCE ON RAFTERS			+0.34	-1.50	-----> F
* #############################################
MEMBER LOAD
1 2 43 44 85 86 127 128 169 170 211 212 253 254 295 296 337 338 379 380 421 -
422 463 464 505 506 574 575 615 616 656 657 697 698 738 739 779 780 820 821 -
861 862 902 903 943 944 984 985 1025 1026 1066 1067 UNI GX 0.83
7 8 49 50 91 92 133 134 175 176 217 218 259 260 301 302 343 344 385 386 427 -
428 469 470 511 512 577 578 617 618 659 660 699 700 741 742 781 782 823 824 -
863 864 905 906 945 946 987 988 1027 1028 1069 1070 UNI GX -3.99
9 TO 16 25 TO 32 51 TO 58 67 TO 74 93 TO 100 109 TO 116 135 TO 142 -
151 TO 158 177 TO 184 193 TO 200 219 TO 226 235 TO 242 261 TO 268 -
277 TO 284 303 TO 310 319 TO 326 345 TO 352 361 TO 368 387 TO 394 -
403 TO 410 429 TO 436 445 TO 452 471 TO 478 487 TO 494 513 TO 520 -
529 TO 536 595 TO 602 635 TO 642 677 TO 684 717 TO 724 759 TO 766 -
799 TO 806 841 TO 848 881 TO 888 923 TO 930 963 TO 970 1005 TO 1012 1045 -
1046 TO 1052 1087 TO 1094 UNI Y -0.34
17 TO 24 33 TO 40 59 TO 66 75 TO 82 101 TO 108 117 TO 124 143 TO 150 -
159 TO 166 185 TO 192 201 TO 208 227 TO 234 243 TO 250 269 TO 276 -
285 TO 292 311 TO 318 327 TO 334 353 TO 360 369 TO 376 395 TO 402 -
411 TO 418 437 TO 444 453 TO 460 479 TO 486 495 TO 502 521 TO 528 -
537 TO 544 603 TO 610 643 TO 650 685 TO 692 725 TO 732 767 TO 774 -
807 TO 814 849 TO 856 889 TO 896 931 TO 938 971 TO 978 1013 TO 1020 1053 -
1054 TO 1060 1095 TO 1102 UNI Y 1.5
********************************************************
LOAD 9 WL3  0(-CPI)
* #############################################
* WALL EXT PRESSURE COEFF			+0.70	-0.25	-----> Cpe
* WALL INT PRESSURE COEFF			-0.50	-0.50	-----> Cpi
* WALL OVERALL WIND COEFF			+0.20	-0.75	-----> Cp
* MEMBER FORCE ON COLUMNS			+0.67	-2.50	-----> F
* #############################################
* ROOF EXT PRESSURE COEFF			-0.95	-0.40	-----> Cpe
* ROOF INT PRESSURE COEFF			-0.50	-0.50	-----> Cpi
* ROOF OVERALL WIND COEFF			-1.45	-0.90	-----> Cp
* MEMBER FORCE ON RAFTERS			-4.83	-3.00	-----> F
* #############################################
MEMBER LOAD
1 2 43 44 85 86 127 128 169 170 211 212 253 254 295 296 337 338 379 380 421 -
422 463 464 505 506 574 575 615 616 656 657 697 698 738 739 779 780 820 821 -
861 862 902 903 943 944 984 985 1025 1026 1066 1067 UNI GX 0.67
7 8 49 50 91 92 133 134 175 176 217 218 259 260 301 302 343 344 385 386 427 -
428 469 470 511 512 577 578 617 618 659 660 699 700 741 742 781 782 823 824 -
863 864 905 906 945 946 987 988 1027 1028 1069 1070 UNI GX 2.49
9 TO 16 25 TO 32 51 TO 58 67 TO 74 93 TO 100 109 TO 116 135 TO 142 -
151 TO 158 177 TO 184 193 TO 200 219 TO 226 235 TO 242 261 TO 268 -
277 TO 284 303 TO 310 319 TO 326 345 TO 352 361 TO 368 387 TO 394 -
403 TO 410 429 TO 436 445 TO 452 471 TO 478 487 TO 494 513 TO 520 -
529 TO 536 595 TO 602 635 TO 642 677 TO 684 717 TO 724 759 TO 766 -
799 TO 806 841 TO 848 881 TO 888 923 TO 930 963 TO 970 1005 TO 1012 1045 -
1046 TO 1052 1087 TO 1094 UNI Y 4.82
17 TO 24 33 TO 40 59 TO 66 75 TO 82 101 TO 108 117 TO 124 143 TO 150 -
159 TO 166 185 TO 192 201 TO 208 227 TO 234 243 TO 250 269 TO 276 -
285 TO 292 311 TO 318 327 TO 334 353 TO 360 369 TO 376 395 TO 402 -
411 TO 418 437 TO 444 453 TO 460 479 TO 486 495 TO 502 521 TO 528 -
537 TO 544 603 TO 610 643 TO 650 685 TO 692 725 TO 732 767 TO 774 -
807 TO 814 849 TO 856 889 TO 896 931 TO 938 971 TO 978 1013 TO 1020 1053 -
1054 TO 1060 1095 TO 1102 UNI Y 2.99
********************************************************
LOAD 10 WL4  180(-CPI)
* #############################################
* WALL EXT PRESSURE COEFF			-0.25	+0.70	-----> Cpe
* WALL INT PRESSURE COEFF			-0.50	-0.50	-----> Cpi
* WALL OVERALL WIND COEFF			-0.75	+0.20	-----> Cp
* MEMBER FORCE ON COLUMNS			-2.50	+0.67	-----> F
* #############################################
* ROOF EXT PRESSURE COEFF			-0.40	-0.95	-----> Cpe
* ROOF INT PRESSURE COEFF			-0.50	-0.50	-----> Cpi
* ROOF OVERALL WIND COEFF			-0.90	-1.45	-----> Cp
* MEMBER FORCE ON RAFTERS			-3.00	-4.83	-----> F
* #############################################
MEMBER LOAD
1 2 43 44 85 86 127 128 169 170 211 212 253 254 295 296 337 338 379 380 421 -
422 463 464 505 506 574 575 615 616 656 657 697 698 738 739 779 780 820 821 -
861 862 902 903 943 944 984 985 1025 1026 1066 1067 UNI GX -2.49
7 8 49 50 91 92 133 134 175 176 217 218 259 260 301 302 343 344 385 386 427 -
428 469 470 511 512 577 578 617 618 659 660 699 700 741 742 781 782 823 824 -
863 864 905 906 945 946 987 988 1027 1028 1069 1070 UNI GX -0.67
9 TO 16 25 TO 32 51 TO 58 67 TO 74 93 TO 100 109 TO 116 135 TO 142 -
151 TO 158 177 TO 184 193 TO 200 219 TO 226 235 TO 242 261 TO 268 -
277 TO 284 303 TO 310 319 TO 326 345 TO 352 361 TO 368 387 TO 394 -
403 TO 410 429 TO 436 445 TO 452 471 TO 478 487 TO 494 513 TO 520 -
529 TO 536 595 TO 602 635 TO 642 677 TO 684 717 TO 724 759 TO 766 -
799 TO 806 841 TO 848 881 TO 888 923 TO 930 963 TO 970 1005 TO 1012 1045 -
1046 TO 1052 1087 TO 1094 UNI Y 2.99
17 TO 24 33 TO 40 59 TO 66 75 TO 82 101 TO 108 117 TO 124 143 TO 150 -
159 TO 166 185 TO 192 201 TO 208 227 TO 234 243 TO 250 269 TO 276 -
285 TO 292 311 TO 318 327 TO 334 353 TO 360 369 TO 376 395 TO 402 -
411 TO 418 437 TO 444 453 TO 460 479 TO 486 495 TO 502 521 TO 528 -
537 TO 544 603 TO 610 643 TO 650 685 TO 692 725 TO 732 767 TO 774 -
807 TO 814 849 TO 856 889 TO 896 931 TO 938 971 TO 978 1013 TO 1020 1053 -
1054 TO 1060 1095 TO 1102 UNI Y 4.82
********************************************************
LOAD 11 WL5  90(+CPI)
* #############################################
* WALL EXT PRESSURE COEFF			-0.50	-0.50	-----> Cpe
* WALL INT PRESSURE COEFF			+0.50	+0.50	-----> Cpi
* WALL OVERALL WIND COEFF			+0.00	+0.00	-----> Cp
* MEMBER FORCE ON COLUMNS			+0.00	+0.00	-----> F
* #############################################
* ROOF EXT PRESSURE COEFF			-0.80	-0.80	-----> Cpe
* ROOF INT PRESSURE COEFF			+0.50	+0.50	-----> Cpi
* ROOF OVERALL WIND COEFF			-0.30	-0.30	-----> Cp
* MEMBER FORCE ON RAFTERS			-1.00	-1.00	-----> F
* #############################################
MEMBER LOAD
1 2 43 44 85 86 127 128 169 170 211 212 253 254 295 296 337 338 379 380 421 -
422 463 464 505 506 574 575 615 616 656 657 697 698 738 739 779 780 820 821 -
861 862 902 903 943 944 984 985 1025 1026 1066 1067 UNI GX 0
7 8 49 50 91 92 133 134 175 176 217 218 259 260 301 302 343 344 385 386 427 -
428 469 470 511 512 577 578 617 618 659 660 699 700 741 742 781 782 823 824 -
863 864 905 906 945 946 987 988 1027 1028 1069 1070 UNI GX 0
9 TO 16 25 TO 32 51 TO 58 67 TO 74 93 TO 100 109 TO 116 135 TO 142 -
151 TO 158 177 TO 184 193 TO 200 219 TO 226 235 TO 242 261 TO 268 -
277 TO 284 303 TO 310 319 TO 326 345 TO 352 361 TO 368 387 TO 394 -
403 TO 410 429 TO 436 445 TO 452 471 TO 478 487 TO 494 513 TO 520 -
529 TO 536 595 TO 602 635 TO 642 677 TO 684 717 TO 724 759 TO 766 -
799 TO 806 841 TO 848 881 TO 888 923 TO 930 963 TO 970 1005 TO 1012 1045 -
1046 TO 1052 1087 TO 1094 UNI Y 1
17 TO 24 33 TO 40 59 TO 66 75 TO 82 101 TO 108 117 TO 124 143 TO 150 -
159 TO 166 185 TO 192 201 TO 208 227 TO 234 243 TO 250 269 TO 276 -
285 TO 292 311 TO 318 327 TO 334 353 TO 360 369 TO 376 395 TO 402 -
411 TO 418 437 TO 444 453 TO 460 479 TO 486 495 TO 502 521 TO 528 -
537 TO 544 603 TO 610 643 TO 650 685 TO 692 725 TO 732 767 TO 774 -
807 TO 814 849 TO 856 889 TO 896 931 TO 938 971 TO 978 1013 TO 1020 1053 -
1054 TO 1060 1095 TO 1102 UNI Y 1
********************************************************
LOAD 12 WL6  90(-CPI)
* #############################################
* WALL EXT PRESSURE COEFF			-0.50	-0.50	-----> Cpe
* WALL INT PRESSURE COEFF			-0.50	-0.50	-----> Cpi
* WALL OVERALL WIND COEFF			-1.00	-1.00	-----> Cp
* MEMBER FORCE ON COLUMNS			-3.33	-3.33	-----> F
* #############################################
* ROOF EXT PRESSURE COEFF			-0.80	-0.80	-----> Cpe
* ROOF INT PRESSURE COEFF			-0.50	-0.50	-----> Cpi
* ROOF OVERALL WIND COEFF			-1.30	-1.30	-----> Cp
* MEMBER FORCE ON RAFTERS			-4.33	-4.33	-----> F
* #############################################
MEMBER LOAD
1 2 43 44 85 86 127 128 169 170 211 212 253 254 295 296 337 338 379 380 421 -
422 463 464 505 506 574 575 615 616 656 657 697 698 738 739 779 780 820 821 -
861 862 902 903 943 944 984 985 1025 1026 1066 1067 UNI GX -3.32
7 8 49 50 91 92 133 134 175 176 217 218 259 260 301 302 343 344 385 386 427 -
428 469 470 511 512 577 578 617 618 659 660 699 700 741 742 781 782 823 824 -
863 864 905 906 945 946 987 988 1027 1028 1069 1070 UNI GX 3.32
9 TO 16 25 TO 32 51 TO 58 67 TO 74 93 TO 100 109 TO 116 135 TO 142 -
151 TO 158 177 TO 184 193 TO 200 219 TO 226 235 TO 242 261 TO 268 -
277 TO 284 303 TO 310 319 TO 326 345 TO 352 361 TO 368 387 TO 394 -
403 TO 410 429 TO 436 445 TO 452 471 TO 478 487 TO 494 513 TO 520 -
529 TO 536 595 TO 602 635 TO 642 677 TO 684 717 TO 724 759 TO 766 -
799 TO 806 841 TO 848 881 TO 888 923 TO 930 963 TO 970 1005 TO 1012 1045 -
1046 TO 1052 1087 TO 1094 UNI Y 4.32
17 TO 24 33 TO 40 59 TO 66 75 TO 82 101 TO 108 117 TO 124 143 TO 150 -
159 TO 166 185 TO 192 201 TO 208 227 TO 234 243 TO 250 269 TO 276 -
285 TO 292 311 TO 318 327 TO 334 353 TO 360 369 TO 376 395 TO 402 -
411 TO 418 437 TO 444 453 TO 460 479 TO 486 495 TO 502 521 TO 528 -
537 TO 544 603 TO 610 643 TO 650 685 TO 692 725 TO 732 767 TO 774 -
807 TO 814 849 TO 856 889 TO 896 931 TO 938 971 TO 978 1013 TO 1020 1053 -
1054 TO 1060 1095 TO 1102 UNI Y 4.32
********************************************************
*** LOAD COMB. FOR STRENGTH
********************************************************
LOAD COMB 200 1.5DL + 1.5COLL
3 1.5 6 1.5 
***
LOAD COMB 201 1.5DL + 1.5COLL + 1.5LLF + 1.5LLR
3 1.5 6 1.5 5 1.5 4 1.5 
***
LOAD COMB 202 1.2DL + 1.2COLL + 1.2LLF + 1.2LLR + 1.2WL1
3 1.2 6 1.2 5 1.2 4 1.2 7 1.2 
LOAD COMB 203 1.2DL + 1.2COLL + 1.2LLF + 1.2LLR + 1.2WL2
3 1.2 6 1.2 5 1.2 4 1.2 8 1.2 
LOAD COMB 204 1.2DL + 1.2COLL + 1.2LLF + 1.2LLR + 1.2WL3
3 1.2 6 1.2 5 1.2 4 1.2 9 1.2 
LOAD COMB 205 1.2DL + 1.2COLL + 1.2LLF + 1.2LLR + 1.2WL4
3 1.2 6 1.2 5 1.2 4 1.2 10 1.2 
LOAD COMB 206 1.2DL + 1.2COLL + 1.2LLF + 1.2LLR + 1.2WL5
3 1.2 6 1.2 5 1.2 4 1.2 11 1.2 
LOAD COMB 207 1.2DL + 1.2COLL + 1.2LLF + 1.2LLR + 1.2WL6
3 1.2 6 1.2 5 1.2 4 1.2 12 1.2 
***
LOAD COMB 208 0.9DL + 1.5WL1
3 0.9 7 1.5 
LOAD COMB 209 0.9DL + 1.5WL2
3 0.9 8 1.5 
LOAD COMB 210 0.9DL + 1.5WL3
3 0.9 9 1.5 
LOAD COMB 211 0.9DL + 1.5WL4
3 0.9 10 1.5 
LOAD COMB 212 0.9DL + 1.5WL5
3 0.9 11 1.5 
LOAD COMB 213 0.9DL + 1.5WL6
3 0.9 12 1.5 
***
LOAD COMB 214 1.2DL + 1.2COLL + 1.2LLF + 1.2LLR + 1.2SEIS+X
3 1.2 6 1.2 5 1.2 4 1.2 1 1.2 
LOAD COMB 215 1.2DL + 1.2COLL + 1.2LLF + 1.2LLR + 1.2SEIS-X
3 1.2 6 1.2 5 1.2 4 1.2 2 1.2 
***
LOAD COMB 216 0.9DL + 1.5SEIS+X
3 0.9 1 1.5 
LOAD COMB 217 0.9DL + 1.5SEIS-X
3 0.9 2 1.5 
***
LOAD COMB 218 1.5DL + 1.5WL1
3 1.5 7 1.5 
LOAD COMB 219 1.5DL + 1.5WL2
3 1.5 8 1.5 
LOAD COMB 220 1.5DL + 1.5WL3
3 1.5 9 1.5 
LOAD COMB 221 1.5DL + 1.5WL4
3 1.5 10 1.5 
LOAD COMB 222 1.5DL + 1.5WL5
3 1.5 11 1.5 
LOAD COMB 223 1.5DL + 1.5WL6
3 1.5 12 1.5 
***
LOAD COMB 224 1.5DL + 1.5SEIS+X
3 1.5 1 1.5 
LOAD COMB 225 1.5DL + 1.5SEIS-X
3 1.5 2 1.5 
********************************************************
*** LOAD COMB. FOR SERVICEABILITY
********************************************************
LOAD COMB 400 1.0DL + 1.0COLL
3 1.0 6 1.0 
***
LOAD COMB 401 1.0DL + 1.0COLL + 1.0LLF + 1.0LLR
3 1.0 6 1.0 5 1.0 4 1.0 
***
LOAD COMB 402 1.0DL + 1.0COLL + 0.8LLF + 0.8LLR + 0.8WL1
3 1.0 6 1.0 5 0.8 4 0.8 7 0.8 
LOAD COMB 403 1.0DL + 1.0COLL + 0.8LLF + 0.8LLR + 0.8WL2
3 1.0 6 1.0 5 0.8 4 0.8 8 0.8 
LOAD COMB 404 1.0DL + 1.0COLL + 0.8LLF + 0.8LLR + 0.8WL3
3 1.0 6 1.0 5 0.8 4 0.8 9 0.8 
LOAD COMB 405 1.0DL + 1.0COLL + 0.8LLF + 0.8LLR + 0.8WL4
3 1.0 6 1.0 5 0.8 4 0.8 10 0.8 
LOAD COMB 406 1.0DL + 1.0COLL + 0.8LLF + 0.8LLR + 0.8WL5
3 1.0 6 1.0 5 0.8 4 0.8 11 0.8 
LOAD COMB 407 1.0DL + 1.0COLL + 0.8LLF + 0.8LLR + 0.8WL6
3 1.0 6 1.0 5 0.8 4 0.8 12 0.8 
***
LOAD COMB 408 1.0DL + 1.0WL1
3 1.0 7 1.0 
LOAD COMB 409 1.0DL + 1.0WL2
3 1.0 8 1.0 
LOAD COMB 410 1.0DL + 1.0WL3
3 1.0 9 1.0 
LOAD COMB 411 1.0DL + 1.0WL4
3 1.0 10 1.0 
LOAD COMB 412 1.0DL + 1.0WL5
3 1.0 11 1.0 
LOAD COMB 413 1.0DL + 1.0WL6
3 1.0 12 1.0 
***
LOAD COMB 414 1.0DL + 1.0COLL + 0.8LLF + 0.8SEIS+X
3 1.0 6 1.0 5 0.8 1 0.8 
LOAD COMB 415 1.0DL + 1.0COLL + 0.8LLF + 0.8SEIS-X
3 1.0 6 1.0 5 0.8 2 0.8 
***
LOAD COMB 416 1.0DL + 1.0SEIS+X
3 1.0 1 1.0 
LOAD COMB 417 1.0DL + 1.0SEIS-X
3 1.0 2 1.0 
********************************************************
********************************************************
PERFORM ANALYSIS
DEFINE ENVELOPE
400 TO 417 ENVELOPE 1 TYPE SERVICEABILITY
200 TO 225 ENVELOPE 2 TYPE STRENGTH
END DEFINE ENVELOPE
LOAD LIST 200 TO 225
********************************************************
PARAMETER 1
CODE IS800 LSD
FYLD 345000 MEMB 1 TO 44 46 47 49 TO 128 130 131 133 TO 212 214 215 -
217 TO 296 298 299 301 TO 380 382 383 385 TO 464 466 467 469 TO 546 -
574 TO 578 595 TO 612 615 TO 618 635 TO 652 656 TO 660 677 TO 694 -
697 TO 700 717 TO 734 738 TO 742 759 TO 776 779 TO 782 799 TO 816 -
820 TO 824 841 TO 858 861 TO 864 881 TO 898 902 TO 906 923 TO 940 -
943 TO 946 963 TO 980 984 TO 988 1005 TO 1022 1025 TO 1028 1045 TO 1062 -
1066 TO 1070 1087 TO 1104
FU 490000 MEMB 1 TO 44 46 47 49 TO 128 130 131 133 TO 212 214 215 217 TO 296 -
298 299 301 TO 380 382 383 385 TO 464 466 467 469 TO 546 574 TO 578 -
595 TO 612 615 TO 618 635 TO 652 656 TO 660 677 TO 694 697 TO 700 -
717 TO 734 738 TO 742 759 TO 776 779 TO 782 799 TO 816 820 TO 824 -
841 TO 858 861 TO 864 881 TO 898 902 TO 906 923 TO 940 943 TO 946 -
963 TO 980 984 TO 988 1005 TO 1022 1025 TO 1028 1045 TO 1062 1066 TO 1070 -
1087 TO 1104
BEAM 1 MEMB 1 TO 44 46 47 49 TO 128 130 131 133 TO 212 214 215 217 TO 296 -
298 299 301 TO 380 382 383 385 TO 464 466 467 469 TO 546 574 TO 578 -
595 TO 612 615 TO 618 635 TO 652 656 TO 660 677 TO 694 697 TO 700 -
717 TO 734 738 TO 742 759 TO 776 779 TO 782 799 TO 816 820 TO 824 -
841 TO 858 861 TO 864 881 TO 898 902 TO 906 923 TO 940 943 TO 946 -
963 TO 980 984 TO 988 1005 TO 1022 1025 TO 1028 1045 TO 1062 1066 TO 1070 -
1087 TO 1104
STP 2 MEMB 1 TO 44 46 47 49 TO 128 130 131 133 TO 212 214 215 217 TO 296 298 -
299 301 TO 380 382 383 385 TO 464 466 467 469 TO 546 574 TO 578 595 TO 612 -
615 TO 618 635 TO 652 656 TO 660 677 TO 694 697 TO 700 717 TO 734 -
738 TO 742 759 TO 776 779 TO 782 799 TO 816 820 TO 824 841 TO 858 -
861 TO 864 881 TO 898 902 TO 906 923 TO 940 943 TO 946 963 TO 980 -
984 TO 988 1005 TO 1022 1025 TO 1028 1045 TO 1062 1066 TO 1070 1087 TO 1104
********************************************************
* DESIGN PARAMETRS *
********************************************************
LZ 8.473 MEMB 1 2 4 5 7 8 43 44 46 47 49 50 85 86 88 89 91 92 127 128 130 -
131 133 134 169 170 172 173 175 176 211 212 214 215 217 218 253 254 256 257 -
259 260 295 296 298 299 301 302 337 338 340 341 343 344 379 380 382 383 385 -
386 421 422 424 425 427 428 463 464 466 467 469 470 505 506 508 509 511 512 -
574 575 577 578 615 TO 618 656 657 659 660 697 TO 700 738 739 741 742 779 -
780 TO 782 820 821 823 824 861 TO 864 902 903 905 906 943 TO 946 984 985 987 -
988 1025 TO 1028 1066 1067 1069 1070
LZ 10.969 MEMB 3 6 87 90 171 174 255 258 339 342 423 426 507 510 576 658 740 -
822 904 986 1068
*
LY 1.5 MEMB 2 8 44 50 86 92 128 134 170 176 212 218 254 260 296 302 338 344 -
380 386 422 428 464 470 506 512 575 578 616 618 657 660 698 700 739 742 780 -
782 821 824 862 864 903 906 944 946 985 988 1026 1028 1067 1070
LX 1.5 MEMB 2 8 44 50 86 92 128 134 170 176 212 218 254 260 296 302 338 344 -
380 386 422 428 464 470 506 512 575 578 616 618 657 660 698 700 739 742 780 -
782 821 824 862 864 903 906 944 946 985 988 1026 1028 1067 1070
*
LX 8.473 MEMB 4 5 46 47 88 89 130 131 172 173 214 215 256 257 298 299 340 -
341 382 383 424 425 466 467 508 509
LY 8.473 MEMB 4 5 46 47 88 89 130 131 172 173 214 215 256 257 298 299 340 -
341 382 383 424 425 466 467 508 509
*
KZ 1.5 MEMB 1 TO 8 41 43 44 46 47 49 50 83 85 TO 92 125 127 128 130 131 133 -
134 167 169 TO 176 209 211 212 214 215 217 218 251 253 TO 260 293 295 296 -
298 299 301 302 335 337 TO 344 377 379 380 382 383 385 386 419 421 TO 428 -
461 463 464 466 467 469 470 503 505 TO 512 545 574 TO 578 611 615 TO 618 -
651 656 TO 660 693 697 TO 700 733 738 TO 742 775 779 TO 782 815 820 TO 824 -
857 861 TO 864 897 902 TO 906 939 943 TO 946 979 984 TO 988 1021 -
1025 TO 1028 1061 1066 TO 1070 1103
********************************************************
LZ 25.45 MEMB 9 TO 40 51 TO 82 93 TO 124 135 TO 166 177 TO 208 219 TO 250 -
261 TO 292 303 TO 334 345 TO 376 387 TO 418 429 TO 460 471 TO 502 -
513 TO 544 595 TO 610 635 TO 650 677 TO 692 717 TO 732 759 TO 774 -
799 TO 814 841 TO 856 881 TO 896 923 TO 938 963 TO 978 1005 TO 1020 1045 -
1046 TO 1060 1087 TO 1102
LZ 7.12 MEMB 42 84 126 168 210 252 294 336 378 420 462 504 546 612 652 694 -
734 776 816 858 898 940 980 1022 1062 1104
LX 1.6 MEMB 42 84 126 168 210 252 294 336 378 420 462 504 546 612 652 694 -
734 776 816 858 898 940 980 1022 1062 1104
LY 1.6 MEMB 42 84 126 168 210 252 294 336 378 420 462 504 546 612 652 694 -
734 776 816 858 898 940 980 1022 1062 1104
UNT 1.6 MEMB 42 84 126 168 210 252 294 336 378 420 462 504 546 612 652 694 -
734 776 816 858 898 940 980 1022 1062 1104
LY 1.5 MEMB 9 TO 40 51 TO 82 93 TO 124 135 TO 166 177 TO 208 219 TO 250 261 -
262 TO 292 303 TO 334 345 TO 376 387 TO 418 429 TO 460 471 TO 502 513 TO 544 -
595 TO 610 635 TO 650 677 TO 692 717 TO 732 759 TO 774 799 TO 814 -
841 TO 856 881 TO 896 923 TO 938 963 TO 978 1005 TO 1020 1045 TO 1060 1087 -
1088 TO 1102
LX 1.5 MEMB 9 TO 40 51 TO 82 93 TO 124 135 TO 166 177 TO 208 219 TO 250 261 -
262 TO 292 303 TO 334 345 TO 376 387 TO 418 429 TO 460 471 TO 502 513 TO 544 -
595 TO 610 635 TO 650 677 TO 692 717 TO 732 759 TO 774 799 TO 814 -
841 TO 856 881 TO 896 923 TO 938 963 TO 978 1005 TO 1020 1045 TO 1060 1087 -
1088 TO 1102
*******************************************************
LZ 14.49 MEMB 547 548 557 TO 560 569 570 1117 1118 1127 1128
LZ 14.26 MEMB 549 TO 556 561 TO 568 1119 TO 1126
*
LX 7.36 MEMB 547 558 559 570 1117 1128
LY 7.36 MEMB 547 558 559 570 1117 1128
*
LX 7.13 MEMB 548 TO 557 560 TO 569 1118 TO 1127
LY 7.13 MEMB 548 TO 557 560 TO 569 1118 TO 1127
********************************************************
CHECK CODE ALL
**FRAME
UNIT METER KG
STEEL TAKE OFF LIST 861 TO 864 881 TO 896
STEEL TAKE OFF LIST 902 TO 906 923 TO 938
**BEAM
STEEL TAKE OFF LIST 898
**COL
STEEL TAKE OFF LIST 897
**JACK BEAM
STEEL TAKE OFF LIST 1117 TO 1128
UNIT METER KN
STEEL TAKE OFF LIST 1117 TO 1128
FINISH
